                                  MODFLOW-NWT-SWR1 
      U.S. GEOLOGICAL SURVEY MODULAR FINITE-DIFFERENCE GROUNDWATER-FLOW MODEL
                             VERSION 1.1.4 4/01/2018
                    BASED ON MODFLOW-2005 VERSION 1.12.00 02/03/2017

 LIST FILE: SIMCOPIAPO.list
                         UNIT    2

 OPENING SIMCOPIAPO.dis
 FILE TYPE:DIS   UNIT   11   STATUS:OLD    
 FORMAT:FORMATTED              ACCESS:SEQUENTIAL          

 OPENING SIMCOPIAPO.bas
 FILE TYPE:BAS6   UNIT   13   STATUS:OLD    
 FORMAT:FORMATTED              ACCESS:SEQUENTIAL          

 OPENING SIMCOPIAPO.upw
 FILE TYPE:UPW   UNIT   31   STATUS:OLD    
 FORMAT:FORMATTED              ACCESS:SEQUENTIAL          

 OPENING SIMCOPIAPO.drn
 FILE TYPE:DRN   UNIT   21   STATUS:OLD    
 FORMAT:FORMATTED              ACCESS:SEQUENTIAL          

 OPENING SIMCOPIAPO.rch
 FILE TYPE:RCH   UNIT   19   STATUS:OLD    
 FORMAT:FORMATTED              ACCESS:SEQUENTIAL          

 OPENING SIMCOPIAPO.wel
 FILE TYPE:WEL   UNIT   20   STATUS:OLD    
 FORMAT:FORMATTED              ACCESS:SEQUENTIAL          

 OPENING SIMCOPIAPO.evt
 FILE TYPE:EVT   UNIT   22   STATUS:OLD    
 FORMAT:FORMATTED              ACCESS:SEQUENTIAL          

 OPENING SIMCOPIAPO.nwt
 FILE TYPE:NWT   UNIT   32   STATUS:OLD    
 FORMAT:FORMATTED              ACCESS:SEQUENTIAL          

 OPENING SIMCOPIAPO.oc
 FILE TYPE:OC   UNIT   14   STATUS:OLD    
 FORMAT:FORMATTED              ACCESS:SEQUENTIAL          

 OPENING SIMCOPIAPO.hds
 FILE TYPE:DATA(BINARY)   UNIT   51   STATUS:REPLACE
 FORMAT:UNFORMATTED            ACCESS:STREAM              

 BAS -- BASIC PACKAGE, VERSION 1.1.4, 4/01/2018 INPUT READ FROM UNIT   13

 MODFLOW was compiled using mixed precision
 Precision of REAL variables:           6
 Precision of DOUBLE PRECISION variables:          15

 DISCRETIZATION INPUT DATA READ FROM UNIT   11
 # DIS package for  MODFLOW-NWT, generated by Flopy.
    1 LAYERS       520 ROWS       510 COLUMNS
  100 STRESS PERIOD(S) IN SIMULATION
 MODEL TIME UNIT IS DAYS
 MODEL LENGTH UNIT IS METERS
  Confining bed flag for each layer:
   0



                               DELR
 READING ON UNIT   11 WITH FORMAT: (510E15.6)          



                               DELC
 READING ON UNIT   11 WITH FORMAT: (520E15.6)          



           TOP ELEVATION OF LAYER 1
 READING ON UNIT   11 WITH FORMAT: (510E15.6)          



             MODEL LAYER BOTTOM EL. FOR LAYER   1
 READING ON UNIT   11 WITH FORMAT: (510E15.6)          


 STRESS PERIOD     LENGTH       TIME STEPS     MULTIPLIER FOR DELT    SS FLAG
 ----------------------------------------------------------------------------
        1         30.40000         10                    1.000         TR
        2         30.40000         10                    1.000         TR
        3         30.40000         10                    1.000         TR
        4         30.40000         10                    1.000         TR
        5         30.40000         10                    1.000         TR
        6         30.40000         10                    1.000         TR
        7         30.40000         10                    1.000         TR
        8         30.40000         10                    1.000         TR
        9         30.40000         10                    1.000         TR
       10         30.40000         10                    1.000         TR
       11         30.40000         10                    1.000         TR
       12         30.40000         10                    1.000         TR
       13         30.40000         10                    1.000         TR
       14         30.40000         10                    1.000         TR
       15         30.40000         10                    1.000         TR
       16         30.40000         10                    1.000         TR
       17         30.40000         10                    1.000         TR
       18         30.40000         10                    1.000         TR
       19         30.40000         10                    1.000         TR
       20         30.40000         10                    1.000         TR
       21         30.40000         10                    1.000         TR
       22         30.40000         10                    1.000         TR
       23         30.40000         10                    1.000         TR
       24         30.40000         10                    1.000         TR
       25         30.40000         10                    1.000         TR
       26         30.40000         10                    1.000         TR
       27         30.40000         10                    1.000         TR
       28         30.40000         10                    1.000         TR
       29         30.40000         10                    1.000         TR
       30         30.40000         10                    1.000         TR
       31         30.40000         10                    1.000         TR
       32         30.40000         10                    1.000         TR
       33         30.40000         10                    1.000         TR
       34         30.40000         10                    1.000         TR
       35         30.40000         10                    1.000         TR
       36         30.40000         10                    1.000         TR
       37         30.40000         10                    1.000         TR
       38         30.40000         10                    1.000         TR
       39         30.40000         10                    1.000         TR
       40         30.40000         10                    1.000         TR
       41         30.40000         10                    1.000         TR
       42         30.40000         10                    1.000         TR
       43         30.40000         10                    1.000         TR
       44         30.40000         10                    1.000         TR
       45         30.40000         10                    1.000         TR
       46         30.40000         10                    1.000         TR
       47         30.40000         10                    1.000         TR
       48         30.40000         10                    1.000         TR
       49         30.40000         10                    1.000         TR
       50         30.40000         10                    1.000         TR
       51         30.40000         10                    1.000         TR
       52         30.40000         10                    1.000         TR
       53         30.40000         10                    1.000         TR
       54         30.40000         10                    1.000         TR
       55         30.40000         10                    1.000         TR
       56         30.40000         10                    1.000         TR
       57         30.40000         10                    1.000         TR
       58         30.40000         10                    1.000         TR
       59         30.40000         10                    1.000         TR
       60         30.40000         10                    1.000         TR
       61         30.40000         10                    1.000         TR
       62         30.40000         10                    1.000         TR
       63         30.40000         10                    1.000         TR
       64         30.40000         10                    1.000         TR
       65         30.40000         10                    1.000         TR
       66         30.40000         10                    1.000         TR
       67         30.40000         10                    1.000         TR
       68         30.40000         10                    1.000         TR
       69         30.40000         10                    1.000         TR
       70         30.40000         10                    1.000         TR
       71         30.40000         10                    1.000         TR
       72         30.40000         10                    1.000         TR
       73         30.40000         10                    1.000         TR
       74         30.40000         10                    1.000         TR
       75         30.40000         10                    1.000         TR
       76         30.40000         10                    1.000         TR
       77         30.40000         10                    1.000         TR
       78         30.40000         10                    1.000         TR
       79         30.40000         10                    1.000         TR
       80         30.40000         10                    1.000         TR
       81         30.40000         10                    1.000         TR
       82         30.40000         10                    1.000         TR
       83         30.40000         10                    1.000         TR
       84         30.40000         10                    1.000         TR
       85         30.40000         10                    1.000         TR
       86         30.40000         10                    1.000         TR
       87         30.40000         10                    1.000         TR
       88         30.40000         10                    1.000         TR
       89         30.40000         10                    1.000         TR
       90         30.40000         10                    1.000         TR
       91         30.40000         10                    1.000         TR
       92         30.40000         10                    1.000         TR
       93         30.40000         10                    1.000         TR
       94         30.40000         10                    1.000         TR
       95         30.40000         10                    1.000         TR
       96         30.40000         10                    1.000         TR
       97         30.40000         10                    1.000         TR
       98         30.40000         10                    1.000         TR
       99         30.40000         10                    1.000         TR
      100         30.40000         10                    1.000         TR

 TRANSIENT SIMULATION




 # BAS6 package for  MODFLOW-NWT, generated by Flopy.                            
 THE FREE FORMAT OPTION HAS BEEN SELECTED



                     BOUNDARY ARRAY FOR LAYER   1
 READING ON UNIT   13 WITH FORMAT: (510I10)            

 AQUIFER HEAD WILL BE SET TO  -999.99     AT ALL NO-FLOW NODES (IBOUND=0).



                       INITIAL HEAD FOR LAYER   1
 READING ON UNIT   13 WITH FORMAT: (510E15.6)          
 # OC package for  MODFLOW-NWT, generated by Flopy.

 OUTPUT CONTROL IS SPECIFIED ONLY AT TIME STEPS FOR WHICH OUTPUT IS DESIRED
 COMPACT CELL-BY-CELL BUDGET FILES WILL BE WRITTEN
 AUXILIARY DATA WILL BE SAVED IN CELL-BY-CELL BUDGET FILES
 HEAD PRINT FORMAT CODE IS   0    DRAWDOWN PRINT FORMAT CODE IS   0
 HEADS WILL BE SAVED ON UNIT   51    DRAWDOWNS WILL BE SAVED ON UNIT    0
 # NWT package for  MODFLOW-NWT, generated by Flopy.

 NWT1 -- Newton Solver, VERSION 1.1.4, 4/01/2018
         INPUT READ FROM UNIT 32

 COMPLEX OPTION:
 DEFAULT SOLVER INPUT VALUES REFLECT STRONGLY NONLINEAR MODEL
 ***XMD linear solver will be used***

   CONVERGENCE CRITERION OF   0.100000E+00 FOR HEAD SOLUTION
   AND A TOLERANCE OF   0.500000E+03 FOR FLOW SOLUTION AND 
   A MAXIMUM OF   500 OUTER ITERATIONS. 


   D-B-D REDUCTION FACTOR OF    0.850000E+00 AND 
   A D-B-D INCREASE FACTOR OF    0.100000E-04 AND 
   A D-B-D RELAXATION OF    0.000000E+00 AND 
   A MOMENTUM FACTOR OF    0.100000E+00 .


   BACKTRACKING IS ACTIVE 
   THE MAXIMUM NUMBER OF BACKTRACKS IS    50 AND 
   THE BACKTRACKING TOLERANCE IS    0.110000E+01 AND
   THE BACKTRACKING REDUCTION FACTOR IS    0.700000E+00

 XMD -- LINEAR SOLUTION BY XMD PACKAGE VERSION 1.30
     BY MOTOMU IBARAKI, OHIO STATE UNIVERSITY, COLOMBUS, OH
                 INPUT READ FROM UNIT 32
 ACCELERATION METHOD                    (IACL) =         2
 NODE ORDERING FLAG                   (NORDER) =         0
 LEVEL OF FILL                         (LEVEL) =        15
 MAXIMUM NUMBER OF ORTHOGONALIZATIONS  (NORTH) =         1
 INDEX FOR USING REDUCED SYSTEM      (IREDSYS) =         1
 RESID. REDUCTION CONVERGE CRITERION  (RRCTOL) =  0.000000E+00
 INDEX FOR USING DROP TOLERANCE     (IDROPTOL) =         1
 DROP TOLERANCE VALUE                  (EPSRN) =  0.100000E-02
 CONVERGENCE CRITERIA OF           (HCLOSEXMD) =  0.100000E-03
 MAX. NUMBER OF LINEAR ITERATIONS  (MXITERXMD) =       200


 UPW1 -- UPSTREAM WEIGHTING FLOW PACKAGE, VERSION 1.1.4, 4/01/2018
         INPUT READ FROM UNIT 31

 # UPW package for  MODFLOW-NWT, generated by Flopy.
 No named parameters

   LAYER FLAGS:
 LAYER       LAYTYP          LAYAVG    CHANI           LAYVKA           LAYWET
 ---------------------------------------------------------------------------
    1             1             0     1.000E+00             0             0

   INTERPRETATION OF LAYER FLAGS:
                        INTERBLOCK     HORIZONTAL    DATA IN
         LAYER TYPE   TRANSMISSIVITY   ANISOTROPY   ARRAY VKA   WETTABILITY
 LAYER   (LAYTYP)        (LAYAVG)      (CHANI)     (LAYVKA)       (LAYWET)
 ---------------------------------------------------------------------------
    1   CONVERTIBLE      HARMONIC     1.000E+00    VERTICAL K  NON-WETTABLE



              HYD. COND. ALONG ROWS FOR LAYER   1
 READING ON UNIT   31 WITH FORMAT: (510E15.6)          

      VERTICAL HYD. COND. =   1.00000     FOR LAYER   1

         SPECIFIC STORAGE =  1.000000E-05 FOR LAYER   1



                     SPECIFIC YIELD FOR LAYER   1
 READING ON UNIT   31 WITH FORMAT: (510E15.6)          

 WEL -- WELL PACKAGE FOR NWT VERSION 1.1.4,  4/01/2018 INPUT READ FROM UNIT   20
 # WEL package for  MODFLOW-NWT, generated by Flopy.
 No named parameters
 MAXIMUM OF    188 ACTIVE WELLS AT ONE TIME
 No named parameters
  PHIRAMP WILL BE SET TO A DEFAULT VALUE OF 1.0E-5
  WELLS WITH REDUCED PUMPING WILL BE REPORTED TO THE MAIN LISTING FILE


     0 Well parameters

 DRN -- DRAIN PACKAGE, VERSION 7, 5/2/2005 INPUT READ FROM UNIT   21
 # DRN package for  MODFLOW-NWT, generated by Flopy.
 No named parameters
 MAXIMUM OF   1061 ACTIVE DRAINS AT ONE TIME


     0 Drain parameters

 EVT -- EVAPOTRANSPIRATION PACKAGE, VERSION 7, 5/2/2005
         INPUT READ FROM UNIT   22
 # EVT package for  MODFLOW-NWT, generated by Flopy.
 No named parameters
 OPTION 3 -- EVAPOTRANSPIRATION FROM HIGHEST ACTIVE NODE IN EACH VERTICAL COLUMN


     0 Evapotranspiration parameters

 RCH -- RECHARGE PACKAGE, VERSION 7, 5/2/2005 INPUT READ FROM UNIT   19
 # RCH package for  MODFLOW-NWT, generated by Flopy.
 No named parameters
 OPTION 3 -- RECHARGE TO HIGHEST ACTIVE NODE IN EACH VERTICAL COLUMN


     0 Recharge parameters
1
                            STRESS PERIOD NO.    1, LENGTH =   30.40000    
                            -----------------------------------------------

                              NUMBER OF TIME STEPS =    10

                               MULTIPLIER FOR DELT =     1.000

                            INITIAL TIME STEP SIZE =   3.040000    

 WELL NO.  LAYER   ROW   COL   STRESS RATE         
 --------------------------------------------------
      1      1     69    225       0.000    
      2      1     71    224      -6048.    
      3      1     74    220      -6134.    
      4      1     73    220      -5789.    
      5      1     71    223      -6221.    
      6      1     71    223      -7344.    
      7      1     72    223      -6394.    
      8      1     92    173      -6653.    
      9      1     94    174      -5875.    
     10      1     93    175      -5875.    
     11      1    203    328      -5875.    
     12      1    438    460      -1198.    
     13      1    436    461      -1198.    
     14      1    410    454      -1198.    
     15      1    433    460      -1198.    
     16      1    431    462      -1198.    
     17      1    417    459      -1198.    
     18      1    418    458      -1198.    
     19      1    414    455      -1198.    
     20      1    443    464      -1198.    
     21      1    379    425      -1198.    
     22      1    362    405      -1198.    
     23      1    361    405      -1198.    
     24      1    362    406      -1198.    
     25      1    363    408      -1198.    
     26      1    364    410      -1198.    
     27      1    369    418      -1198.    
     28      1    367    417      -1198.    
     29      1    365    415      -1198.    
     30      1    402    447      -1198.    
     31      1    400    446      -1198.    
     32      1    392    444      -1198.    
     33      1    391    441      -1198.    
     34      1    403    448      -1198.    
     35      1    405    447      -1198.    
     36      1    362    410      -1198.    
     37      1    362    411      -1198.    
     38      1    363    412      -1198.    
     39      1    375    421      -1198.    
     40      1    383    430      -1198.    
     41      1    397    445      -1198.    
     42      1    360    403      -1198.    
     43      1    350    401      -1198.    
     44      1    346    393      -1268.    
     45      1    333    387      -1268.    
     46      1    328    384      -1268.    
     47      1    326    383      -1268.    
     48      1    323    378      -1268.    
     49      1    321    378      -1268.    
     50      1    322    376      -1268.    
     51      1    316    374      -1268.    
     52      1    311    371      -1268.    
     53      1    307    369      -1268.    
     54      1    305    368      -1268.    
     55      1    303    368      -1268.    
     56      1    300    369      -1268.    
     57      1    293    364      -1268.    
     58      1    292    362      -1268.    
     59      1    278    350      -1268.    
     60      1    274    351      -1268.    
     61      1    273    350      -1268.    
     62      1    271    350      -1268.    
     63      1    267    348      -1268.    
     64      1    263    348      -1268.    
     65      1    263    348      -1268.    
     66      1    248    347      -1268.    
     67      1    243    342      -1268.    
     68      1    242    339      -1268.    
     69      1    238    341      -1268.    
     70      1    233    340      -1268.    
     71      1    232    340      -1268.    
     72      1    229    341      -1268.    
     73      1    227    341      -1268.    
     74      1    219    342      -1268.    
     75      1    219    336      -1268.    
     76      1    199    329      -1268.    
     77      1    191    332      -0.000    
     78      1    190    332      -0.000    
     79      1    130    310      -0.000    
     80      1    123    305      -0.000    
     81      1    104    289      -0.000    
     82      1     96    287      -1902.    
     83      1     95    284      -1902.    
     84      1     95    280      -1902.    
     85      1     93    276      -1902.    
     86      1     94    275      -1902.    
     87      1     90    277      -1902.    
     88      1     90    273      -1902.    
     89      1     86    271      -1902.    
     90      1     85    270      -1902.    
     91      1     84    265      -1902.    
     92      1     85    265      -1902.    
     93      1     84    264      -1902.    
     94      1     79    263      -1902.    
     95      1     79    263      -1902.    
     96      1     76    262      -1902.    
     97      1     73    257      -1902.    
     98      1     74    255      -1902.    
     99      1     71    255      -1902.    
    100      1     66    253      -1902.    
    101      1     68    252      -1902.    
    102      1     69    250      -1902.    
    103      1     65    248      -1902.    
    104      1     68    248      -1902.    
    105      1     69    247      -1902.    
    106      1     73    247      -1902.    
    107      1     64    246      -1902.    
    108      1     69    245      -1902.    
    109      1     72    245      -1902.    
    110      1     69    241      -1902.    
    111      1     73    238      -1902.    
    112      1     70    238      -1902.    
    113      1     76    263      -1902.    
    114      1     66    232      -1041.    
    115      1     69    229      -1041.    
    116      1     71    228      -1041.    
    117      1     69    227      -1041.    
    118      1     72    219      -1041.    
    119      1     72    218      -1041.    
    120      1     72    218      -1041.    
    121      1     73    217      -1041.    
    122      1     77    219      -1041.    
    123      1     78    219      -1041.    
    124      1     83    213      -1041.    
    125      1     77    213      -1041.    
    126      1     81    211      -1041.    
    127      1     81    210      -1041.    
    128      1     81    210      -1041.    
    129      1     82    208      -1041.    
    130      1     80    205      -1041.    
    131      1     86    202      -1041.    
    132      1     84    200      -1041.    
    133      1     89    200      -1041.    
    134      1     89    199      -1041.    
    135      1     88    199      -1041.    
    136      1     86    199      -1041.    
    137      1     85    199      -1041.    
    138      1     82    197      -1041.    
    139      1     86    197      -1041.    
    140      1     88    198      -1041.    
    141      1     90    192      -1041.    
    142      1     89    191      -1041.    
    143      1     84    192      -1041.    
    144      1     91    189      -1041.    
    145      1     92    185      -1041.    
    146      1     87    183      -1041.    
    147      1     92    182      -1041.    
    148      1     90    182      -1041.    
    149      1     88    179      -1041.    
    150      1     89    176      -1041.    
    151      1     92    172      -1041.    
    152      1     93    164      -1041.    
    153      1     94    162      -1041.    
    154      1    103    156      -1041.    
    155      1    103    156      -1041.    
    156      1     96    154      -1041.    
    157      1     97    153      -1041.    
    158      1    122    139      -1041.    
    159      1     92     77      -1041.    
    160      1     94     77      -1041.    
    161      1     94     73      -1041.    
    162      1     97    152      -1041.    
    163      1    118    337      -666.7    
    164      1    133    319      -2678.    
    165      1    131    320      -3951.    
    166      1    133    321      -2956.    
    167      1    161    329      -2141.    
    168      1    178    330      -551.0    
    169      1    163    330      -1122.    
    170      1    131    320      -2473.    
    171      1    129    315      -3937.    
    172      1    162    329      -1959.    
    173      1    131    311      -826.1    
    174      1    221    340      -1994.    
    175      1    220    340      -1034.    
    176      1    221    340      -667.7    
    177      1    137    322      -2082.    
    178      1    137    321      -1407.    
    179      1    185    329      -2012.    
    180      1    183    329      -1473.    
    181      1    175    329      -585.3    
    182      1     79    243      -1490.    
    183      1     77    245      -2414.    
    184      1    199    329      -1617.    
    185      1    198    330      -2514.    
    186      1    140    328      -972.1    
    187      1    143    327      -863.6    
    188      1    139    327      -1331.    

    188 WELLS

 DRAIN NO.  LAYER   ROW   COL     DRAIN EL.  CONDUCTANCE         
 ----------------------------------------------------------------
      1      1     71    230       274.8           1000.    
      2      1     71    231       275.0           1000.    
      3      1     71    232       278.0           200.0    
      4      1     72    225       267.4           1000.    
      5      1     72    226       269.1           1000.    
      6      1     72    227       271.0           1000.    
      7      1     72    228       271.0           1000.    
      8      1     72    229       273.0           1000.    
      9      1     72    233       277.8           200.0    
     10      1     73    222       265.5           1000.    
     11      1     73    223       265.5           1000.    
     12      1     73    224       265.9           1000.    
     13      1     73    233       277.8           200.0    
     14      1     73    234       279.6           200.0    
     15      1     73    235       279.2           200.0    
     16      1     74    221       262.7           1000.    
     17      1     74    236       280.6           200.0    
     18      1     74    237       283.6           200.0    
     19      1     75    219       261.4           1000.    
     20      1     75    220       262.4           1000.    
     21      1     75    221       264.4           1000.    
     22      1     75    238       282.8           200.0    
     23      1     75    246       293.3           200.0    
     24      1     75    247       294.8           200.0    
     25      1     75    248       294.8           200.0    
     26      1     75    249       296.2           200.0    
     27      1     75    250       297.3           200.0    
     28      1     76    218       258.8           1000.    
     29      1     76    239       284.1           200.0    
     30      1     76    240       284.4           200.0    
     31      1     76    241       286.2           200.0    
     32      1     76    245       290.1           200.0    
     33      1     76    251       296.9           200.0    
     34      1     76    252       299.5           200.0    
     35      1     77    218       255.5           1000.    
     36      1     77    242       286.3           200.0    
     37      1     77    243       286.3           200.0    
     38      1     77    244       287.6           200.0    
     39      1     77    253       302.6           200.0    
     40      1     77    254       305.6           200.0    
     41      1     77    255       303.1           200.0    
     42      1     77    256       305.4           200.0    
     43      1     78    217       255.5           1000.    
     44      1     78    257       307.7           200.0    
     45      1     79    217       255.2           1000.    
     46      1     79    258       309.3           200.0    
     47      1     79    259       309.2           200.0    
     48      1     80    216       251.2           1000.    
     49      1     80    260       311.1           200.0    
     50      1     81    215       251.4           1000.    
     51      1     81    260       314.8           200.0    
     52      1     82    212       247.1           1000.    
     53      1     82    213       247.1           1000.    
     54      1     82    214       246.8           1000.    
     55      1     82    261       313.7           200.0    
     56      1     83    211       245.6           1000.    
     57      1     83    262       315.4           200.0    
     58      1     84    210       243.3           1000.    
     59      1     84    263       315.4           200.0    
     60      1     85    205       239.9           1000.    
     61      1     85    206       239.8           1000.    
     62      1     85    207       239.8           1000.    
     63      1     85    208       239.8           1000.    
     64      1     85    209       242.8           1000.    
     65      1     85    264       321.1           200.0    
     66      1     86    204       236.4           1000.    
     67      1     86    265       321.6           200.0    
     68      1     87    204       234.3           1000.    
     69      1     87    266       324.4           200.0    
     70      1     87    267       326.2           200.0    
     71      1     88     47       89.88           100.0    
     72      1     88    204       234.3           1000.    
     73      1     88    268       326.2           200.0    
     74      1     88    269       327.6           200.0    
     75      1     89     48       72.39           100.0    
     76      1     89     49       77.96           100.0    
     77      1     89    203       232.8           1000.    
     78      1     89    270       329.7           200.0    
     79      1     90     50       77.80           100.0    
     80      1     90     51       112.5           100.0    
     81      1     90     52       113.6           100.0    
     82      1     90     53       113.6           100.0    
     83      1     90     54       108.6           100.0    
     84      1     90     55       94.09           100.0    
     85      1     90     56       87.41           100.0    
     86      1     90    200       230.9           1000.    
     87      1     90    201       231.9           1000.    
     88      1     90    202       233.3           1000.    
     89      1     90    271       331.4           200.0    
     90      1     90    272       333.4           200.0    
     91      1     91     57       84.64           100.0    
     92      1     91    199       229.5           1000.    
     93      1     91    273       334.9           200.0    
     94      1     92     58       94.46           100.0    
     95      1     92    193       222.9           1000.    
     96      1     92    194       227.2           1000.    
     97      1     92    195       231.2           1000.    
     98      1     92    196       230.2           1000.    
     99      1     92    197       226.9           1000.    
    100      1     92    198       226.9           1000.    
    101      1     92    274       337.7           200.0    
    102      1     93     59       89.00           100.0    
    103      1     93    192       222.9           1000.    
    104      1     93    275       339.2           200.0    
    105      1     94     60       88.17           100.0    
    106      1     94    189       219.0           1000.    
    107      1     94    190       220.4           1000.    
    108      1     94    191       222.2           1000.    
    109      1     94    192       225.5           1000.    
    110      1     94    276       343.6           200.0    
    111      1     94    277       345.2           200.0    
    112      1     95     61       90.11           100.0    
    113      1     95    181       211.6           1000.    
    114      1     95    182       212.2           1000.    
    115      1     95    183       212.2           1000.    
    116      1     95    184       212.4           1000.    
    117      1     95    185       213.7           1000.    
    118      1     95    186       214.8           1000.    
    119      1     95    187       217.6           1000.    
    120      1     95    188       217.6           1000.    
    121      1     95    278       344.6           200.0    
    122      1     96     62       92.76           100.0    
    123      1     96    180       209.8           1000.    
    124      1     96    279       345.4           200.0    
    125      1     96    280       347.9           200.0    
    126      1     97     63       108.2           100.0    
    127      1     97     64       95.95           100.0    
    128      1     97     65       93.04           100.0    
    129      1     97    175       206.2           1000.    
    130      1     97    176       206.5           1000.    
    131      1     97    177       208.0           1000.    
    132      1     97    178       208.0           1000.    
    133      1     97    179       208.3           1000.    
    134      1     97    281       350.7           200.0    
    135      1     98     66       95.23           100.0    
    136      1     98     67       96.86           100.0    
    137      1     98     68       96.86           100.0    
    138      1     98     69       98.14           100.0    
    139      1     98     70       99.71           100.0    
    140      1     98     71       100.1           100.0    
    141      1     98     72       101.2           100.0    
    142      1     98     73       101.2           100.0    
    143      1     98     74       102.3           100.0    
    144      1     98     75       103.8           100.0    
    145      1     98     76       104.7           100.0    
    146      1     98    170       202.1           1000.    
    147      1     98    171       203.9           1000.    
    148      1     98    172       205.5           1000.    
    149      1     98    173       205.5           1000.    
    150      1     98    174       206.7           1000.    
    151      1     98    282       353.2           200.0    
    152      1     98    283       353.2           200.0    
    153      1     99     77       106.9           100.0    
    154      1     99    167       198.0           1000.    
    155      1     99    168       198.0           1000.    
    156      1     99    169       198.8           1000.    
    157      1     99    284       354.5           200.0    
    158      1     99    285       355.5           200.0    
    159      1    100     78       110.1           100.0    
    160      1    100    165       196.2           1000.    
    161      1    100    166       196.1           1000.    
    162      1    100    286       358.9           200.0    
    163      1    101     79       107.6           100.0    
    164      1    101     80       108.0           100.0    
    165      1    101    162       192.0           1000.    
    166      1    101    163       192.0           1000.    
    167      1    101    164       193.7           1000.    
    168      1    101    286       361.5           200.0    
    169      1    102     81       110.9           100.0    
    170      1    102     82       112.1           100.0    
    171      1    102    160       190.4           1000.    
    172      1    102    161       190.9           1000.    
    173      1    102    286       365.6           200.0    
    174      1    103     83       112.1           1.000    
    175      1    103     84       112.3           1.000    
    176      1    103     85       115.5           1.000    
    177      1    103    102       133.2           100.0    
    178      1    103    103       133.2           100.0    
    179      1    103    104       134.2           100.0    
    180      1    103    105       134.6           100.0    
    181      1    103    106       137.1           100.0    
    182      1    103    107       139.0           100.0    
    183      1    103    159       189.1           1000.    
    184      1    103    286       365.6           200.0    
    185      1    104     86       116.1           1.000    
    186      1    104     87       119.1           1.000    
    187      1    104     88       119.1           1.000    
    188      1    104     89       120.6           1.000    
    189      1    104     90       121.2           1.000    
    190      1    104     91       123.8           1.000    
    191      1    104     92       125.0           1.000    
    192      1    104     93       125.0           1.000    
    193      1    104     94       125.4           1.000    
    194      1    104     95       124.8           1.000    
    195      1    104     96       125.6           1.000    
    196      1    104     97       128.7           1.000    
    197      1    104     98       128.7           1.000    
    198      1    104     99       129.6           1.000    
    199      1    104    100       131.1           100.0    
    200      1    104    101       130.0           100.0    
    201      1    104    102       129.3           100.0    
    202      1    104    108       135.8           100.0    
    203      1    104    109       139.5           100.0    
    204      1    104    141       172.2           100.0    
    205      1    104    142       173.2           100.0    
    206      1    104    143       173.2           100.0    
    207      1    104    144       174.3           1000.    
    208      1    104    145       176.6           1000.    
    209      1    104    146       177.8           1000.    
    210      1    104    147       179.1           1000.    
    211      1    104    148       179.1           1000.    
    212      1    104    152       182.2           1000.    
    213      1    104    153       182.2           1000.    
    214      1    104    154       183.7           1000.    
    215      1    104    155       184.7           1000.    
    216      1    104    156       184.1           1000.    
    217      1    104    157       184.3           1000.    
    218      1    104    158       184.3           1000.    
    219      1    104    287       365.8           200.0    
    220      1    105    110       140.6           100.0    
    221      1    105    111       144.2           100.0    
    222      1    105    139       170.8           100.0    
    223      1    105    140       170.8           100.0    
    224      1    105    149       179.1           1000.    
    225      1    105    150       180.4           1000.    
    226      1    105    151       179.9           1000.    
    227      1    106    112       145.8           100.0    
    228      1    106    138       170.2           100.0    
    229      1    107    113       143.3           100.0    
    230      1    107    114       144.8           100.0    
    231      1    107    115       145.2           100.0    
    232      1    107    116       145.9           100.0    
    233      1    107    117       146.9           100.0    
    234      1    107    118       146.9           100.0    
    235      1    107    119       148.4           100.0    
    236      1    107    135       167.5           100.0    
    237      1    107    136       167.9           100.0    
    238      1    107    137       169.6           100.0    
    239      1    108    120       151.6           100.0    
    240      1    108    121       154.2           100.0    
    241      1    108    122       156.1           100.0    
    242      1    108    133       165.9           100.0    
    243      1    108    134       166.8           100.0    
    244      1    109    123       154.4           100.0    
    245      1    109    124       157.3           100.0    
    246      1    109    125       158.7           100.0    
    247      1    109    126       160.0           100.0    
    248      1    109    127       161.0           100.0    
    249      1    109    128       161.0           100.0    
    250      1    109    129       160.9           100.0    
    251      1    109    130       160.7           100.0    
    252      1    109    131       162.0           100.0    
    253      1    109    132       162.7           100.0    
    254      1    258    349       652.1           200.0    
    255      1    259    348       687.2           200.0    
    256      1    260    348       668.1           200.0    
    257      1    261    348       684.8           200.0    
    258      1    262    348       661.2           200.0    
    259      1    263    347       661.2           200.0    
    260      1    264    347       664.0           200.0    
    261      1    265    347       667.2           200.0    
    262      1    266    347       667.9           200.0    
    263      1    267    347       670.7           200.0    
    264      1    268    347       670.7           200.0    
    265      1    269    347       684.4           200.0    
    266      1    270    347       686.3           200.0    
    267      1    271    347       679.6           200.0    
    268      1    272    347       694.0           200.0    
    269      1    273    348       694.0           200.0    
    270      1    274    349       684.0           200.0    
    271      1    275    350       703.7           200.0    
    272      1    276    350       694.9           200.0    
    273      1    277    350       700.4           200.0    
    274      1    278    350       700.4           200.0    
    275      1    279    350       702.7           200.0    
    276      1    280    350       702.7           200.0    
    277      1    281    350       709.2           200.0    
    278      1    282    350       713.0           200.0    
    279      1    283    350       713.0           200.0    
    280      1    284    350       706.9           200.0    
    281      1    285    351       706.9           200.0    
    282      1    286    352       710.6           200.0    
    283      1    287    353       714.6           200.0    
    284      1    287    354       714.1           200.0    
    285      1    287    355       715.8           200.0    
    286      1    287    356       726.3           200.0    
    287      1    288    357       727.1           200.0    
    288      1    289    358       727.7           200.0    
    289      1    290    358       738.0           200.0    
    290      1    291    359       741.2           200.0    
    291      1    292    359       740.1           200.0    
    292      1    293    360       764.3           200.0    
    293      1    294    361       747.6           200.0    
    294      1    295    362       744.2           200.0    
    295      1    296    363       748.5           200.0    
    296      1    297    364       746.5           200.0    
    297      1    298    365       741.2           200.0    
    298      1    299    366       744.7           200.0    
    299      1    300    366       746.3           200.0    
    300      1    301    366       750.0           200.0    
    301      1    302    367       837.4           200.0    
    302      1    303    367       837.4           200.0    
    303      1    304    367       755.3           200.0    
    304      1    305    367       758.0           200.0    
    305      1    306    367       760.7           200.0    
    306      1    307    367       762.1           200.0    
    307      1    308    367       762.1           200.0    
    308      1    309    368       765.0           200.0    
    309      1    310    368       768.1           200.0    
    310      1    311    368       770.5           200.0    
    311      1    312    368       775.0           200.0    
    312      1    313    368       775.0           200.0    
    313      1    314    369       773.3           200.0    
    314      1    315    370       776.4           200.0    
    315      1    315    371       782.6           200.0    
    316      1    316    372       787.9           200.0    
    317      1    317    372       785.0           200.0    
    318      1    318    373       785.0           200.0    
    319      1    319    374       788.2           200.0    
    320      1    320    374       790.4           200.0    
    321      1    321    374       792.8           200.0    
    322      1    322    375       793.5           200.0    
    323      1    323    376       794.3           200.0    
    324      1    324    377       797.0           200.0    
    325      1    325    378       800.7           200.0    
    326      1    326    379       805.5           200.0    
    327      1    327    380       813.4           200.0    
    328      1    327    381       821.2           200.0    
    329      1    328    382       831.0           200.0    
    330      1    329    383       823.9           200.0    
    331      1    330    383       829.1           200.0    
    332      1    331    384       824.2           200.0    
    333      1    332    385       833.7           200.0    
    334      1    333    386       851.9           200.0    
    335      1    334    386       830.9           200.0    
    336      1    335    386       829.7           200.0    
    337      1    336    387       871.6           200.0    
    338      1    337    387       876.8           200.0    
    339      1    338    387       876.8           200.0    
    340      1    339    387       861.8           200.0    
    341      1    340    388       844.7           200.0    
    342      1    341    388       851.9           200.0    
    343      1    342    389       859.7           200.0    
    344      1    343    389       859.7           200.0    
    345      1    344    390       858.8           200.0    
    346      1    345    390       854.8           200.0    
    347      1    346    391       858.9           200.0    
    348      1    347    392       878.7           200.0    
    349      1    348    393       878.7           200.0    
    350      1    348    394       915.9           200.0    
    351      1    349    395       888.4           200.0    
    352      1    349    396       935.2           200.0    
    353      1    349    397       920.4           200.0    
    354      1    350    398       883.9           200.0    
    355      1    350    399       892.5           200.0    
    356      1    351    400       901.4           200.0    
    357      1    353    400       905.7           1000.    
    358      1    354    400       921.7           1000.    
    359      1    355    400       910.0           1000.    
    360      1    356    401       902.4           1000.    
    361      1    357    401       900.6           1000.    
    362      1    358    401       900.6           1000.    
    363      1    359    400       901.9           1000.    
    364      1    360    400       927.5           1000.    
    365      1    361    401       917.6           1000.    
    366      1    362    402       922.0           1000.    
    367      1    363    403       922.0           1000.    
    368      1    364    404       919.1           1000.    
    369      1    364    405       934.3           1000.    
    370      1    364    406       955.8           1000.    
    371      1    364    407       960.0           1000.    
    372      1    365    408       938.7           1000.    
    373      1    366    409       941.3           1000.    
    374      1    366    410       939.9           1000.    
    375      1    366    411       951.0           1000.    
    376      1    367    412       942.7           1000.    
    377      1    368    413       942.7           1000.    
    378      1    368    414       946.7           1000.    
    379      1    368    415       948.3           1000.    
    380      1    369    416       950.0           1000.    
    381      1    370    417       953.8           1000.    
    382      1    371    417       955.0           1000.    
    383      1    372    418       954.0           1000.    
    384      1    373    418       954.0           1000.    
    385      1    374    418       955.0           1000.    
    386      1    375    419       954.5           1000.    
    387      1    376    419       960.1           1000.    
    388      1    377    420       961.0           1000.    
    389      1    378    420       961.0           1000.    
    390      1    379    421       969.8           1000.    
    391      1    380    422       967.9           1000.    
    392      1    380    423       967.9           1000.    
    393      1    381    424       971.0           1000.    
    394      1    382    425       976.4           1000.    
    395      1    383    426       1004.           1000.    
    396      1    384    427       1011.           1000.    
    397      1    385    428       980.0           1000.    
    398      1    386    429       981.1           1000.    
    399      1    387    430       990.6           1000.    
    400      1    387    431       1008.           1000.    
    401      1    388    432       1026.           1000.    
    402      1    389    433       1012.           1000.    
    403      1    390    433       1000.           1000.    
    404      1    390    434       1011.           1000.    
    405      1    391    435       1003.           1000.    
    406      1    392    436       1001.           1000.    
    407      1    392    437       1004.           1000.    
    408      1    392    438       1004.           1000.    
    409      1    393    439       1005.           1000.    
    410      1    394    440       1007.           1000.    
    411      1    395    440       1005.           1000.    
    412      1    396    441       1010.           1000.    
    413      1    397    441       1012.           1000.    
    414      1    398    441       1012.           1000.    
    415      1    399    442       1016.           1000.    
    416      1    400    443       1017.           1000.    
    417      1    401    444       1016.           1000.    
    418      1    402    445       1021.           1000.    
    419      1    403    445       1021.           1000.    
    420      1    404    445       1020.           1000.    
    421      1    405    446       1028.           1000.    
    422      1    406    447       1029.           1000.    
    423      1    407    448       1029.           1000.    
    424      1    408    448       1029.           1000.    
    425      1    409    449       1033.           1000.    
    426      1    410    450       1041.           1000.    
    427      1    410    451       1040.           1000.    
    428      1    411    452       1044.           1000.    
    429      1    412    453       1044.           1000.    
    430      1    413    453       1044.           1000.    
    431      1    414    453       1044.           1000.    
    432      1    415    453       1139.           1000.    
    433      1    416    453       1136.           1000.    
    434      1    417    453       1109.           1000.    
    435      1    418    454       1061.           1000.    
    436      1    419    454       1054.           1000.    
    437      1    420    454       1069.           1000.    
    438      1    421    455       1061.           1000.    
    439      1    422    455       1063.           1000.    
    440      1    423    456       1071.           1000.    
    441      1    424    457       1074.           1000.    
    442      1    425    458       1070.           1000.    
    443      1    426    458       1072.           1000.    
    444      1    427    458       1074.           1000.    
    445      1    428    458       1074.           1000.    
    446      1    429    458       1076.           1000.    
    447      1    430    457       1077.           1000.    
    448      1    431    457       1079.           1000.    
    449      1    432    457       1083.           1000.    
    450      1    433    457       1083.           1000.    
    451      1    434    457       1084.           1000.    
    452      1    435    457       1086.           1000.    
    453      1    436    458       1089.           1000.    
    454      1    437    458       1093.           1000.    
    455      1    438    458       1093.           1000.    
    456      1    439    459       1097.           1000.    
    457      1    440    459       1097.           1000.    
    458      1    441    459       1100.           1000.    
    459      1    442    460       1106.           1000.    
    460      1    443    460       1106.           1000.    
    461      1    443    461       1117.           1000.    
    462      1    444    462       1125.           1000.    
    463      1    445    463       1116.           1000.    
    464      1    446    464       1129.           1000.    
    465      1    447    465       1138.           1000.    
    466      1    448    466       1149.           1000.    
    467      1    449    466       1151.           1000.    
    468      1    450    467       1131.           1000.    
    469      1    451    468       1132.           1000.    
    470      1    452    469       1137.           1000.    
    471      1    453    470       1137.           1000.    
    472      1    454    471       1139.           1000.    
    473      1    455    472       1164.           1000.    
    474      1    456    473       1147.           1000.    
    475      1    457    474       1150.           1000.    
    476      1    458    475       1160.           1000.    
    477      1    459    475       1154.           1000.    
    478      1    460    476       1169.           1000.    
    479      1    460    508       1356.           1000.    
    480      1    460    509       1346.           1000.    
    481      1    461    476       1164.           1000.    
    482      1    461    506       1365.           1000.    
    483      1    461    507       1337.           1000.    
    484      1    462    476       1160.           1000.    
    485      1    462    506       1334.           1000.    
    486      1    463    476       1160.           1000.    
    487      1    463    505       1338.           1000.    
    488      1    464    477       1181.           1000.    
    489      1    464    504       1325.           1000.    
    490      1    465    477       1165.           1000.    
    491      1    465    503       1317.           1000.    
    492      1    466    478       1166.           1000.    
    493      1    466    503       1317.           1000.    
    494      1    467    478       1169.           1000.    
    495      1    467    502       1322.           1000.    
    496      1    468    478       1169.           1000.    
    497      1    468    502       1322.           1000.    
    498      1    469    478       1173.           1000.    
    499      1    469    502       1312.           1000.    
    500      1    470    478       1175.           1000.    
    501      1    470    501       1290.           1000.    
    502      1    471    477       1177.           1000.    
    503      1    471    500       1284.           1000.    
    504      1    472    476       1179.           1000.    
    505      1    472    498       1281.           1000.    
    506      1    472    499       1281.           1000.    
    507      1    473    475       1179.           1000.    
    508      1    473    497       1281.           1000.    
    509      1    474    475       1182.           1000.    
    510      1    474    496       1276.           1000.    
    511      1    475    475       1183.           1000.    
    512      1    475    495       1279.           1000.    
    513      1    476    474       1189.           1000.    
    514      1    476    475       1189.           1000.    
    515      1    476    494       1291.           1000.    
    516      1    476    495       1287.           1000.    
    517      1    477    474       1191.           1000.    
    518      1    477    475       1192.           1000.    
    519      1    477    493       1255.           1000.    
    520      1    478    474       1191.           1000.    
    521      1    478    476       1194.           1000.    
    522      1    478    493       1255.           1000.    
    523      1    479    474       1195.           1000.    
    524      1    479    476       1198.           1000.    
    525      1    479    493       1249.           1000.    
    526      1    480    474       1198.           1000.    
    527      1    480    477       1204.           1000.    
    528      1    480    492       1250.           1000.    
    529      1    481    474       1201.           1000.    
    530      1    481    478       1206.           1000.    
    531      1    481    491       1246.           1000.    
    532      1    482    473       1212.           1000.    
    533      1    482    479       1216.           1000.    
    534      1    482    480       1236.           1000.    
    535      1    482    489       1233.           1000.    
    536      1    482    490       1238.           1000.    
    537      1    483    473       1212.           1000.    
    538      1    483    481       1253.           1000.    
    539      1    483    482       1240.           1000.    
    540      1    483    483       1240.           1000.    
    541      1    483    484       1274.           1000.    
    542      1    483    485       1268.           1000.    
    543      1    483    486       1236.           1000.    
    544      1    483    487       1230.           1000.    
    545      1    483    488       1230.           1000.    
    546      1    484    473       1228.           1000.    
    547      1    484    484       1229.           1000.    
    548      1    485    472       1240.           1000.    
    549      1    485    485       1230.           1000.    
    550      1    486    472       1236.           1000.    
    551      1    486    486       1253.           1000.    
    552      1    487    472       1235.           1000.    
    553      1    487    486       1241.           1000.    
    554      1    488    472       1235.           1000.    
    555      1    488    486       1241.           1000.    
    556      1    489    472       1230.           1000.    
    557      1    489    486       1239.           1000.    
    558      1    490    473       1230.           1000.    
    559      1    490    486       1245.           1000.    
    560      1    491    473       1235.           1000.    
    561      1    491    487       1256.           1000.    
    562      1    492    474       1236.           1000.    
    563      1    492    487       1256.           1000.    
    564      1    493    474       1236.           1000.    
    565      1    493    488       1256.           1000.    
    566      1    494    474       1236.           1000.    
    567      1    494    489       1261.           1000.    
    568      1    495    474       1241.           1000.    
    569      1    495    489       1264.           1000.    
    570      1    496    474       1247.           1000.    
    571      1    496    489       1270.           1000.    
    572      1    497    474       1251.           1000.    
    573      1    497    489       1272.           1000.    
    574      1    498    474       1251.           1000.    
    575      1    498    489       1272.           1000.    
    576      1    499    474       1257.           1000.    
    577      1    499    489       1275.           1000.    
    578      1    500    473       1260.           1000.    
    579      1    500    490       1286.           1000.    
    580      1    501    473       1272.           1000.    
    581      1    501    490       1289.           1000.    
    582      1    502    473       1279.           1000.    
    583      1    502    491       1308.           1000.    
    584      1    503    473       1279.           1000.    
    585      1    503    491       1308.           1000.    
    586      1    504    473       1283.           1000.    
    587      1    504    491       1295.           1000.    
    588      1    505    473       1297.           1000.    
    589      1    505    492       1309.           1000.    
    590      1    506    474       1312.           1000.    
    591      1    506    493       1317.           1000.    
    592      1    507    474       1303.           1000.    
    593      1    507    494       1336.           1000.    
    594      1    508    475       1305.           1000.    
    595      1    508    494       1336.           1000.    
    596      1    509    475       1293.           1000.    
    597      1    509    494       1329.           1000.    
    598      1    510    475       1296.           1000.    
    599      1    510    494       1328.           1000.    
    600      1    511    475       1300.           1000.    
    601      1    511    494       1333.           1000.    
    602      1    512    475       1304.           1000.    
    603      1    512    493       1336.           1000.    
    604      1    513    475       1304.           1000.    
    605      1    513    493       1336.           1000.    
    606      1    514    476       1319.           1000.    
    607      1    514    493       1334.           1000.    
    608      1    515    476       1323.           1000.    
    609      1    515    493       1347.           1000.    
    610      1    516    476       1328.           1000.    
    611      1    516    493       1349.           1000.    
    612      1    517    476       1329.           1000.    
    613      1    517    494       1356.           1000.    
    614      1    518    476       1329.           1000.    
    615      1    518    494       1356.           1000.    
    616      1    519    476       1333.           1000.    
    617      1    519    495       1359.           1000.    
    618      1    105    288       367.1           1000.    
    619      1    105    289       369.5           1000.    
    620      1    106    289       371.3           1000.    
    621      1    106    290       371.2           1000.    
    622      1    106    291       372.5           1000.    
    623      1    106    292       376.2           1000.    
    624      1    107    292       376.1           1000.    
    625      1    107    293       376.1           1000.    
    626      1    107    294       379.0           1000.    
    627      1    108    294       379.0           1000.    
    628      1    108    295       381.3           1000.    
    629      1    109    295       383.8           1000.    
    630      1    109    296       388.0           1000.    
    631      1    109    297       390.4           1000.    
    632      1    110    297       388.1           1000.    
    633      1    111    297       389.3           1000.    
    634      1    111    298       389.3           1000.    
    635      1    112    298       387.1           1000.    
    636      1    112    299       392.9           1000.    
    637      1    113    299       392.9           1000.    
    638      1    113    300       394.8           1000.    
    639      1    114    300       395.2           1000.    
    640      1    114    301       398.0           1000.    
    641      1    115    301       397.5           1000.    
    642      1    115    302       400.0           1000.    
    643      1    116    302       400.7           1000.    
    644      1    116    303       400.7           1000.    
    645      1    117    303       401.8           1000.    
    646      1    117    304       403.6           1000.    
    647      1    118    304       403.6           1000.    
    648      1    118    305       405.5           1000.    
    649      1    119    305       406.7           1000.    
    650      1    120    305       407.5           1000.    
    651      1    120    306       410.8           1000.    
    652      1    121    306       410.2           1000.    
    653      1    122    306       407.5           1000.    
    654      1    122    307       415.4           1000.    
    655      1    123    307       415.4           1000.    
    656      1    124    307       416.4           1000.    
    657      1    124    308       416.4           1000.    
    658      1    125    308       414.3           1000.    
    659      1    126    308       412.3           1000.    
    660      1    126    309       417.0           1000.    
    661      1    127    309       418.1           1000.    
    662      1    127    310       419.9           1000.    
    663      1    128    310       419.9           1000.    
    664      1    128    311       421.1           1000.    
    665      1    129    311       422.4           1000.    
    666      1    129    312       424.3           1000.    
    667      1    130    312       424.6           1000.    
    668      1    130    313       424.6           1000.    
    669      1    130    314       426.5           1000.    
    670      1    131    314       425.8           1000.    
    671      1    131    315       428.9           1000.    
    672      1    131    316       431.6           1000.    
    673      1    132    316       430.0           1000.    
    674      1    132    317       433.7           1000.    
    675      1    133    317       433.7           1000.    
    676      1    133    318       433.7           1000.    
    677      1    134    318       432.7           1000.    
    678      1    134    319       436.6           1000.    
    679      1    135    319       436.6           1000.    
    680      1    135    320       439.5           1000.    
    681      1    136    320       437.3           1000.    
    682      1    136    321       439.3           1000.    
    683      1    136    322       441.7           1000.    
    684      1    136    323       441.7           1000.    
    685      1    137    323       439.3           1000.    
    686      1    137    324       441.3           1000.    
    687      1    137    325       444.2           1000.    
    688      1    138    325       444.2           1000.    
    689      1    138    326       447.0           1000.    
    690      1    138    327       455.7           1000.    
    691      1    139    327       454.5           1000.    
    692      1    139    328       454.5           1000.    
    693      1    140    328       443.9           1000.    
    694      1    140    329       446.1           1000.    
    695      1    141    329       446.0           1000.    
    696      1    142    329       447.9           1000.    
    697      1    143    329       447.9           1000.    
    698      1    144    329       448.8           1000.    
    699      1    145    329       447.3           1000.    
    700      1    145    330       450.7           1000.    
    701      1    146    330       453.7           1000.    
    702      1    147    330       454.7           1000.    
    703      1    148    330       454.7           1000.    
    704      1    149    329       454.8           1000.    
    705      1    149    330       454.7           1000.    
    706      1    150    329       457.0           1000.    
    707      1    151    329       460.2           1000.    
    708      1    152    329       460.9           1000.    
    709      1    153    329       460.9           1000.    
    710      1    154    329       463.1           1000.    
    711      1    155    329       465.9           1000.    
    712      1    156    329       467.5           1000.    
    713      1    157    329       468.4           1000.    
    714      1    158    329       468.4           1000.    
    715      1    159    329       470.2           1000.    
    716      1    160    329       473.1           1000.    
    717      1    161    329       477.0           1000.    
    718      1    162    329       479.0           1000.    
    719      1    162    330       484.6           1000.    
    720      1    163    330       484.6           1000.    
    721      1    164    330       484.6           1000.    
    722      1    165    330       484.8           1000.    
    723      1    166    330       485.8           1000.    
    724      1    167    330       486.9           1000.    
    725      1    168    330       486.9           1000.    
    726      1    169    330       489.6           1000.    
    727      1    170    330       491.7           1000.    
    728      1    170    331       496.4           1000.    
    729      1    171    331       501.7           1000.    
    730      1    172    331       510.2           1000.    
    731      1    173    331       510.2           1000.    
    732      1    174    331       509.4           1000.    
    733      1    175    331       512.5           1000.    
    734      1    176    331       514.8           1000.    
    735      1    177    331       515.6           1000.    
    736      1    178    331       515.6           1000.    
    737      1    179    331       512.2           1000.    
    738      1    180    331       510.0           1000.    
    739      1    181    331       515.7           1000.    
    740      1    182    331       534.4           1000.    
    741      1    183    331       534.4           1000.    
    742      1    184    331       536.2           1000.    
    743      1    185    331       523.2           1000.    
    744      1    186    331       520.7           1000.    
    745      1    187    331       519.1           1000.    
    746      1    188    331       519.1           1000.    
    747      1    189    331       520.6           1000.    
    748      1    190    331       523.7           1000.    
    749      1    191    331       525.0           1000.    
    750      1    192    331       528.1           1000.    
    751      1    193    331       528.1           1000.    
    752      1    194    331       531.2           1000.    
    753      1    195    331       544.2           1000.    
    754      1    196    331       560.0           1000.    
    755      1    197    331       559.4           1000.    
    756      1    198    330       537.0           1000.    
    757      1    198    331       559.4           1000.    
    758      1    199    330       539.9           1000.    
    759      1    200    330       545.1           1000.    
    760      1    201    330       551.1           1000.    
    761      1    202    330       557.1           1000.    
    762      1    203    329       546.5           1000.    
    763      1    203    330       557.1           1000.    
    764      1    204    329       549.2           1000.    
    765      1    205    329       553.1           1000.    
    766      1    206    329       554.1           1000.    
    767      1    207    329       557.0           1000.    
    768      1    208    329       557.0           1000.    
    769      1    209    329       557.5           1000.    
    770      1    209    330       560.8           1000.    
    771      1    210    330       559.9           1000.    
    772      1    211    330       562.1           1000.    
    773      1    212    330       568.2           1000.    
    774      1    212    331       565.9           1000.    
    775      1    213    331       565.9           1000.    
    776      1    214    331       578.5           1000.    
    777      1    215    331       598.3           1000.    
    778      1    215    332       572.9           1000.    
    779      1    216    332       574.6           1000.    
    780      1    217    332       574.4           1000.    
    781      1    217    333       574.4           1000.    
    782      1    218    333       574.4           1000.    
    783      1    219    333       574.2           1000.    
    784      1    219    334       582.3           1000.    
    785      1    220    334       581.3           1000.    
    786      1    221    334       579.6           1000.    
    787      1    221    335       589.8           1000.    
    788      1    222    335       588.2           1000.    
    789      1    222    336       592.8           1000.    
    790      1    223    336       592.8           1000.    
    791      1    223    337       597.7           1000.    
    792      1    223    338       597.7           1000.    
    793      1    224    338       595.0           1000.    
    794      1    224    339       598.4           1000.    
    795      1    225    339       594.8           1000.    
    796      1    226    339       590.5           1000.    
    797      1    227    339       592.1           1000.    
    798      1    228    338       597.4           1000.    
    799      1    228    339       592.1           1000.    
    800      1    229    338       600.8           1000.    
    801      1    230    338       608.7           1000.    
    802      1    231    338       609.8           1000.    
    803      1    232    338       601.2           1000.    
    804      1    233    338       601.2           1000.    
    805      1    234    338       604.5           1000.    
    806      1    235    338       607.5           1000.    
    807      1    235    339       607.9           1000.    
    808      1    236    339       609.8           1000.    
    809      1    237    339       612.8           1000.    
    810      1    238    339       612.8           1000.    
    811      1    239    339       614.1           1000.    
    812      1    240    339       616.0           1000.    
    813      1    241    339       617.8           1000.    
    814      1    241    340       618.9           1000.    
    815      1    242    340       621.0           1000.    
    816      1    243    340       621.0           1000.    
    817      1    244    340       622.2           1000.    
    818      1    244    341       623.8           1000.    
    819      1    245    341       624.7           1000.    
    820      1    245    342       627.8           1000.    
    821      1    246    342       628.6           1000.    
    822      1    247    342       629.1           1000.    
    823      1    247    343       629.1           1000.    
    824      1    248    343       629.1           1000.    
    825      1    248    344       629.7           1000.    
    826      1    249    344       632.3           1000.    
    827      1    249    345       633.7           1000.    
    828      1    250    345       636.0           1000.    
    829      1    251    345       642.7           1000.    
    830      1    251    346       640.8           1000.    
    831      1    252    346       675.6           1000.    
    832      1    252    347       652.7           1000.    
    833      1    253    347       652.7           1000.    
    834      1    253    348       652.7           1000.    
    835      1    254    348       705.6           1000.    
    836      1    254    349       647.2           1000.    
    837      1    255    349       647.7           1000.    
    838      1    256    349       649.8           1000.    
    839      1    257    349       652.1           1000.    
    840      1    105    288       367.1           1000.    
    841      1    105    289       369.5           1000.    
    842      1    106    289       371.3           1000.    
    843      1    106    290       371.2           1000.    
    844      1    106    291       372.5           1000.    
    845      1    106    292       376.2           1000.    
    846      1    107    292       376.1           1000.    
    847      1    107    293       376.1           1000.    
    848      1    107    294       379.0           1000.    
    849      1    108    294       379.0           1000.    
    850      1    108    295       381.3           1000.    
    851      1    109    295       383.8           1000.    
    852      1    109    296       388.0           1000.    
    853      1    109    297       390.4           1000.    
    854      1    110    297       388.1           1000.    
    855      1    111    297       389.3           1000.    
    856      1    111    298       389.3           1000.    
    857      1    112    298       387.1           1000.    
    858      1    112    299       392.9           1000.    
    859      1    113    299       392.9           1000.    
    860      1    113    300       394.8           1000.    
    861      1    114    300       395.2           1000.    
    862      1    114    301       398.0           1000.    
    863      1    115    301       397.5           1000.    
    864      1    115    302       400.0           1000.    
    865      1    116    302       400.7           1000.    
    866      1    116    303       400.7           1000.    
    867      1    117    303       401.8           1000.    
    868      1    117    304       403.6           1000.    
    869      1    118    304       403.6           1000.    
    870      1    118    305       405.5           1000.    
    871      1    119    305       406.7           1000.    
    872      1    120    305       407.5           1000.    
    873      1    120    306       410.8           1000.    
    874      1    121    306       410.2           1000.    
    875      1    122    306       407.5           1000.    
    876      1    122    307       415.4           1000.    
    877      1    123    307       415.4           1000.    
    878      1    124    307       416.4           1000.    
    879      1    124    308       416.4           1000.    
    880      1    125    308       414.3           1000.    
    881      1    126    308       412.3           1000.    
    882      1    126    309       417.0           1000.    
    883      1    127    309       418.1           1000.    
    884      1    127    310       419.9           1000.    
    885      1    128    310       419.9           1000.    
    886      1    128    311       421.1           1000.    
    887      1    129    311       422.4           1000.    
    888      1    129    312       424.3           1000.    
    889      1    130    312       424.6           1000.    
    890      1    130    313       424.6           1000.    
    891      1    130    314       426.5           1000.    
    892      1    131    314       425.8           1000.    
    893      1    131    315       428.9           1000.    
    894      1    131    316       431.6           1000.    
    895      1    132    316       430.0           1000.    
    896      1    132    317       433.7           1000.    
    897      1    133    317       433.7           1000.    
    898      1    133    318       433.7           1000.    
    899      1    134    318       432.7           1000.    
    900      1    134    319       436.6           1000.    
    901      1    135    319       436.6           1000.    
    902      1    135    320       439.5           1000.    
    903      1    136    320       437.3           1000.    
    904      1    136    321       439.3           1000.    
    905      1    136    322       441.7           1000.    
    906      1    136    323       441.7           1000.    
    907      1    137    323       439.3           1000.    
    908      1    137    324       441.3           1000.    
    909      1    137    325       444.2           1000.    
    910      1    138    325       444.2           1000.    
    911      1    138    326       447.0           1000.    
    912      1    138    327       455.7           1000.    
    913      1    139    327       454.5           1000.    
    914      1    139    328       454.5           1000.    
    915      1    140    328       443.9           1000.    
    916      1    140    329       446.1           1000.    
    917      1    141    329       446.0           1000.    
    918      1    142    329       447.9           1000.    
    919      1    143    329       447.9           1000.    
    920      1    144    329       448.8           1000.    
    921      1    145    329       447.3           1000.    
    922      1    145    330       450.7           1000.    
    923      1    146    330       453.7           1000.    
    924      1    147    330       454.7           1000.    
    925      1    148    330       454.7           1000.    
    926      1    149    329       454.8           1000.    
    927      1    149    330       454.7           1000.    
    928      1    150    329       457.0           1000.    
    929      1    151    329       460.2           1000.    
    930      1    152    329       460.9           1000.    
    931      1    153    329       460.9           1000.    
    932      1    154    329       463.1           1000.    
    933      1    155    329       465.9           1000.    
    934      1    156    329       467.5           1000.    
    935      1    157    329       468.4           1000.    
    936      1    158    329       468.4           1000.    
    937      1    159    329       470.2           1000.    
    938      1    160    329       473.1           1000.    
    939      1    161    329       477.0           1000.    
    940      1    162    329       479.0           1000.    
    941      1    162    330       484.6           1000.    
    942      1    163    330       484.6           1000.    
    943      1    164    330       484.6           1000.    
    944      1    165    330       484.8           1000.    
    945      1    166    330       485.8           1000.    
    946      1    167    330       486.9           1000.    
    947      1    168    330       486.9           1000.    
    948      1    169    330       489.6           1000.    
    949      1    170    330       491.7           1000.    
    950      1    170    331       496.4           1000.    
    951      1    171    331       501.7           1000.    
    952      1    172    331       510.2           1000.    
    953      1    173    331       510.2           1000.    
    954      1    174    331       509.4           1000.    
    955      1    175    331       512.5           1000.    
    956      1    176    331       514.8           1000.    
    957      1    177    331       515.6           1000.    
    958      1    178    331       515.6           1000.    
    959      1    179    331       512.2           1000.    
    960      1    180    331       510.0           1000.    
    961      1    181    331       515.7           1000.    
    962      1    182    331       534.4           1000.    
    963      1    183    331       534.4           1000.    
    964      1    184    331       536.2           1000.    
    965      1    185    331       523.2           1000.    
    966      1    186    331       520.7           1000.    
    967      1    187    331       519.1           1000.    
    968      1    188    331       519.1           1000.    
    969      1    189    331       520.6           1000.    
    970      1    190    331       523.7           1000.    
    971      1    191    331       525.0           1000.    
    972      1    192    331       528.1           1000.    
    973      1    193    331       528.1           1000.    
    974      1    194    331       531.2           1000.    
    975      1    195    331       544.2           1000.    
    976      1    196    331       560.0           1000.    
    977      1    197    331       559.4           1000.    
    978      1    198    330       537.0           1000.    
    979      1    198    331       559.4           1000.    
    980      1    199    330       539.9           1000.    
    981      1    200    330       545.1           1000.    
    982      1    201    330       551.1           1000.    
    983      1    202    330       557.1           1000.    
    984      1    203    329       546.5           1000.    
    985      1    203    330       557.1           1000.    
    986      1    204    329       549.2           1000.    
    987      1    205    329       553.1           1000.    
    988      1    206    329       554.1           1000.    
    989      1    207    329       557.0           1000.    
    990      1    208    329       557.0           1000.    
    991      1    209    329       557.5           1000.    
    992      1    209    330       560.8           1000.    
    993      1    210    330       559.9           1000.    
    994      1    211    330       562.1           1000.    
    995      1    212    330       568.2           1000.    
    996      1    212    331       565.9           1000.    
    997      1    213    331       565.9           1000.    
    998      1    214    331       578.5           1000.    
    999      1    215    331       598.3           1000.    
   1000      1    215    332       572.9           1000.    
   1001      1    216    332       574.6           1000.    
   1002      1    217    332       574.4           1000.    
   1003      1    217    333       574.4           1000.    
   1004      1    218    333       574.4           1000.    
   1005      1    219    333       574.2           1000.    
   1006      1    219    334       582.3           1000.    
   1007      1    220    334       581.3           1000.    
   1008      1    221    334       579.6           1000.    
   1009      1    221    335       589.8           1000.    
   1010      1    222    335       588.2           1000.    
   1011      1    222    336       592.8           1000.    
   1012      1    223    336       592.8           1000.    
   1013      1    223    337       597.7           1000.    
   1014      1    223    338       597.7           1000.    
   1015      1    224    338       595.0           1000.    
   1016      1    224    339       598.4           1000.    
   1017      1    225    339       594.8           1000.    
   1018      1    226    339       590.5           1000.    
   1019      1    227    339       592.1           1000.    
   1020      1    228    338       597.4           1000.    
   1021      1    228    339       592.1           1000.    
   1022      1    229    338       600.8           1000.    
   1023      1    230    338       608.7           1000.    
   1024      1    231    338       609.8           1000.    
   1025      1    232    338       601.2           1000.    
   1026      1    233    338       601.2           1000.    
   1027      1    234    338       604.5           1000.    
   1028      1    235    338       607.5           1000.    
   1029      1    235    339       607.9           1000.    
   1030      1    236    339       609.8           1000.    
   1031      1    237    339       612.8           1000.    
   1032      1    238    339       612.8           1000.    
   1033      1    239    339       614.1           1000.    
   1034      1    240    339       616.0           1000.    
   1035      1    241    339       617.8           1000.    
   1036      1    241    340       618.9           1000.    
   1037      1    242    340       621.0           1000.    
   1038      1    243    340       621.0           1000.    
   1039      1    244    340       622.2           1000.    
   1040      1    244    341       623.8           1000.    
   1041      1    245    341       624.7           1000.    
   1042      1    245    342       627.8           1000.    
   1043      1    246    342       628.6           1000.    
   1044      1    247    342       629.1           1000.    
   1045      1    247    343       629.1           1000.    
   1046      1    248    343       629.1           1000.    
   1047      1    248    344       629.7           1000.    
   1048      1    249    344       632.3           1000.    
   1049      1    249    345       633.7           1000.    
   1050      1    250    345       636.0           1000.    
   1051      1    251    345       642.7           1000.    
   1052      1    251    346       640.8           1000.    
   1053      1    252    346       675.6           1000.    
   1054      1    252    347       652.7           1000.    
   1055      1    253    347       652.7           1000.    
   1056      1    253    348       652.7           1000.    
   1057      1    254    348       705.6           1000.    
   1058      1    254    349       647.2           1000.    
   1059      1    255    349       647.7           1000.    
   1060      1    256    349       649.8           1000.    
   1061      1    257    349       652.1           1000.    

   1061 DRAINS



                         ET SURFACE
 READING ON UNIT   22 WITH FORMAT: (510E15.6)          

  EVAPOTRANSPIRATION RATE =  1.000000E-02

         EXTINCTION DEPTH =   1.00000    



                           RECHARGE
 READING ON UNIT   19 WITH FORMAT: (510E15.6)          

 SOLVING FOR HEAD 
                                                   Max.-Head-Change                        Max.-Flux-Residual
  Residual-Control   Outer-Iter.   Inner-Iter.     Column Row Layer    Max.-Head-Change    Column Row Layer    Max.-Flux-Residual            L2-New               L2-Old           Solver-Max-Delh
          0                 1           3           317  215     1       0.1208601607E+04     475  493    1       0.2418080935E+06      0.8599571969E+06      0.0000000000E+00      0.1208601607E+04
          0                 2           3           317  216     1      -0.1637644546E+04     459  453    1      -0.1498060387E+06      0.4713678710E+06      0.8599571969E+06     -0.1637644546E+04
          0                 3           3           318  214     1       0.1929849938E+05     318  212    1      -0.2051536807E+06      0.2301805366E+06      0.4713678710E+06      0.1929849938E+05
          1                 3           0           318  214     1       0.1350894934E+05     318  214    1      -0.2957775803E+07      0.3430581523E+07      0.2301805366E+06      0.1929849938E+05
          2                 3           0           318  214     1       0.9456264375E+04     318  214    1      -0.2075348797E+07      0.2412354239E+07      0.3430581523E+07      0.1929849938E+05
          3                 3           0           318  214     1       0.6619384950E+04     318  214    1      -0.1457649903E+07      0.1700905908E+07      0.2412354239E+07      0.1929849938E+05
          4                 3           0           318  214     1       0.4633569386E+04     318  214    1      -0.1025260685E+07      0.1206120044E+07      0.1700905908E+07      0.1929849938E+05
          5                 3           0           318  214     1       0.3243498515E+04     318  214    1      -0.7225882371E+06      0.8655990568E+06      0.1206120044E+07      0.1929849938E+05
          6                 3           0           318  214     1       0.2270448922E+04     318  214    1      -0.5107175273E+06      0.6324037660E+06      0.8655990568E+06      0.1929849938E+05
          7                 3           0           318  214     1       0.1589314218E+04     318  214    1      -0.3624080329E+06      0.4763831877E+06      0.6324037660E+06      0.1929849938E+05
                                                   Max.-Head-Change                        Max.-Flux-Residual
  Residual-Control   Outer-Iter.   Inner-Iter.     Column Row Layer    Max.-Head-Change    Column Row Layer    Max.-Flux-Residual            L2-New               L2-Old           Solver-Max-Delh
          8                 3           0           318  214     1       0.1112519934E+04     318  214    1      -0.2585913887E+06      0.3755334254E+06      0.4763831877E+06      0.1929849938E+05
          9                 3           0           318  214     1       0.7787639404E+03     318  212    1      -0.1939183288E+06      0.3132677273E+06      0.3755334254E+06      0.1929849938E+05
         10                 3           0           318  214     1       0.5451347490E+03     318  212    1      -0.1972889345E+06      0.2767577926E+06      0.3132677273E+06      0.1929849938E+05
         11                 3           0           318  214     1       0.3815943178E+03     318  212    1      -0.1996483584E+06      0.2550526610E+06      0.2767577926E+06      0.1929849938E+05
          0                 4           4           317  216     1       0.1368676488E+04     318  212    1      -0.2012999552E+06      0.2446595245E+06      0.2550526610E+06      0.1368676488E+04
          0                 5           3           317  214     1       0.1305146742E+05     317  216    1      -0.1264466582E+06      0.2032569228E+06      0.2446595245E+06      0.1305146742E+05
          1                 5           0           317  214     1       0.9136027041E+04     318  213    1      -0.1882943540E+07      0.3416940679E+07      0.2032569228E+06      0.1305146742E+05
          2                 5           0           317  214     1       0.6395218820E+04     318  213    1      -0.1310934013E+07      0.2389759183E+07      0.3416940679E+07      0.1305146742E+05
          3                 5           0           317  214     1       0.4476653098E+04     318  213    1      -0.9105273512E+06      0.1681988130E+07      0.2389759183E+07      0.1305146742E+05
          4                 5           0           317  214     1       0.3133657115E+04     318  213    1      -0.6302426925E+06      0.1207943086E+07      0.1681988130E+07      0.1305146742E+05
                                                   Max.-Head-Change                        Max.-Flux-Residual
  Residual-Control   Outer-Iter.   Inner-Iter.     Column Row Layer    Max.-Head-Change    Column Row Layer    Max.-Flux-Residual            L2-New               L2-Old           Solver-Max-Delh
          5                 5           0           317  214     1       0.2193559943E+04     318  213    1      -0.4340434348E+06      0.8679347200E+06      0.1207943086E+07      0.1305146742E+05
          6                 5           0           317  214     1       0.1535491934E+04     318  213    1      -0.2967039568E+06      0.6324985152E+06      0.8679347200E+06      0.1305146742E+05
          7                 5           0           317  214     1       0.1074844335E+04     318  214    1      -0.2050081420E+06      0.4737836707E+06      0.6324985152E+06      0.1305146742E+05
          8                 5           0           317  214     1       0.7523910220E+03     318  214    1      -0.1509309381E+06      0.3697661375E+06      0.4737836707E+06      0.1305146742E+05
          9                 5           0           317  214     1       0.5266737065E+03     318  215    1       0.1226009061E+06      0.3041631872E+06      0.3697661375E+06      0.1305146742E+05
         10                 5           0           317  214     1       0.3686715882E+03     317  216    1      -0.1228027383E+06      0.2645763211E+06      0.3041631872E+06      0.1305146742E+05
         11                 5           0           317  214     1       0.2580701074E+03     317  216    1      -0.1238959143E+06      0.2396459955E+06      0.2645763211E+06      0.1305146742E+05
          0                 6           3           317  216     1      -0.1287199280E+04     317  216    1      -0.1246611375E+06      0.2204782444E+06      0.2396459955E+06     -0.1287199280E+04
          0                 7           4           318  212     1      -0.7512006620E+03     318  212    1      -0.1291402476E+06      0.1920232247E+06      0.2204782444E+06     -0.7512006620E+03
          0                 8           3           319  212     1       0.1359897864E+06     476  416    1      -0.1106561006E+06      0.1357723431E+06      0.1920232247E+06      0.1359897864E+06
                                                   Max.-Head-Change                        Max.-Flux-Residual
  Residual-Control   Outer-Iter.   Inner-Iter.     Column Row Layer    Max.-Head-Change    Column Row Layer    Max.-Flux-Residual            L2-New               L2-Old           Solver-Max-Delh
          1                 8           0           319  212     1       0.9519284884E+05     319  212    1      -0.2626142477E+08      0.3269564684E+08      0.1357723431E+06      0.1359897864E+06
          2                 8           0           319  212     1       0.6663499306E+05     319  212    1      -0.1838433077E+08      0.2288964271E+08      0.3269564684E+08      0.1359897864E+06
          3                 8           0           319  212     1       0.4664449435E+05     319  212    1      -0.1287036506E+08      0.1602612417E+08      0.2288964271E+08      0.1359897864E+06
          4                 8           0           319  212     1       0.3265114549E+05     319  212    1      -0.9010589132E+07      0.1122261029E+08      0.1602612417E+08      0.1359897864E+06
          5                 8           0           319  212     1       0.2285580145E+05     319  212    1      -0.6308746027E+07      0.7860067774E+07      0.1122261029E+08      0.1359897864E+06
          6                 8           0           319  212     1       0.1599906074E+05     319  212    1      -0.4417455886E+07      0.5506295369E+07      0.7860067774E+07      0.1359897864E+06
          7                 8           0           319  212     1       0.1119934233E+05     319  212    1      -0.3093552809E+07      0.3858489098E+07      0.5506295369E+07      0.1359897864E+06
          8                 8           0           319  212     1       0.7839539497E+04     319  212    1      -0.2166820672E+07      0.2705183173E+07      0.3858489098E+07      0.1359897864E+06
          9                 8           0           319  212     1       0.5487677555E+04     319  212    1      -0.1518108186E+07      0.1898660020E+07      0.2705183173E+07      0.1359897864E+06
         10                 8           0           319  212     1       0.3841374223E+04     319  212    1      -0.1064009454E+07      0.1335214950E+07      0.1898660020E+07      0.1359897864E+06
                                                   Max.-Head-Change                        Max.-Flux-Residual
  Residual-Control   Outer-Iter.   Inner-Iter.     Column Row Layer    Max.-Head-Change    Column Row Layer    Max.-Flux-Residual            L2-New               L2-Old           Solver-Max-Delh
         11                 8           0           319  212     1       0.2688961910E+04     319  212    1      -0.7461403472E+06      0.9423816089E+06      0.1335214950E+07      0.1359897864E+06
         12                 8           0           319  212     1       0.1882273305E+04     319  212    1      -0.5236319762E+06      0.6695935318E+06      0.9423816089E+06      0.1359897864E+06
         13                 8           0           319  212     1       0.1317591291E+04     319  212    1      -0.3678761190E+06      0.4816298154E+06      0.6695935318E+06      0.1359897864E+06
         14                 8           0           319  212     1       0.9223138881E+03     319  212    1      -0.2588470209E+06      0.3539659490E+06      0.4816298154E+06      0.1359897864E+06
         15                 8           0           319  212     1       0.6456197106E+03     319  212    1      -0.1825266535E+06      0.2693869929E+06      0.3539659490E+06      0.1359897864E+06
         16                 8           0           319  212     1       0.4519337898E+03     319  212    1      -0.1291023973E+06      0.2154511278E+06      0.2693869929E+06      0.1359897864E+06
         17                 8           0           319  212     1       0.3163536474E+03     476  416    1      -0.1103934786E+06      0.1827137831E+06      0.2154511278E+06      0.1359897864E+06
         18                 8           0           319  212     1       0.2214475494E+03     476  416    1      -0.1104722643E+06      0.1617850212E+06      0.1827137831E+06      0.1359897864E+06
          0                 9           4           317  215     1      -0.7334333436E+03     476  416    1      -0.1105274148E+06      0.1490927457E+06      0.1617850212E+06     -0.7334333436E+03
          0                10           3           320  213     1       0.8902590898E+05     319  215    1      -0.7430120460E+05      0.9246738694E+05      0.1490927457E+06      0.8902590898E+05
                                                   Max.-Head-Change                        Max.-Flux-Residual
  Residual-Control   Outer-Iter.   Inner-Iter.     Column Row Layer    Max.-Head-Change    Column Row Layer    Max.-Flux-Residual            L2-New               L2-Old           Solver-Max-Delh
          1                10           0           320  213     1       0.6231813523E+05     320  213    1      -0.9955519195E+07      0.1157276454E+08      0.9246738694E+05      0.8902590898E+05
          2                10           0           320  213     1       0.4362269392E+05     320  213    1      -0.6971900198E+07      0.8097566437E+07      0.1157276454E+08      0.8902590898E+05
          3                10           0           320  213     1       0.3053588522E+05     320  213    1      -0.4883366936E+07      0.5668311365E+07      0.8097566437E+07      0.8902590898E+05
          4                10           0           320  213     1       0.2137511929E+05     320  213    1      -0.3421393678E+07      0.3967840569E+07      0.5668311365E+07      0.8902590898E+05
          5                10           0           320  213     1       0.1496258325E+05     320  213    1      -0.2398012414E+07      0.2776754526E+07      0.3967840569E+07      0.8902590898E+05
          6                10           0           320  213     1       0.1047380810E+05     320  213    1      -0.1681645542E+07      0.1942420308E+07      0.2776754526E+07      0.8902590898E+05
          7                10           0           320  213     1       0.7331665542E+04     320  213    1      -0.1180188740E+07      0.1359629080E+07      0.1942420308E+07      0.8902590898E+05
          8                10           0           320  213     1       0.5132165792E+04     320  213    1      -0.8291689844E+06      0.9536385988E+06      0.1359629080E+07      0.8902590898E+05
          9                10           0           320  213     1       0.3592515993E+04     320  213    1      -0.5834551598E+06      0.6710415241E+06      0.9536385988E+06      0.8902590898E+05
         10                10           0           320  213     1       0.2514761153E+04     320  213    1      -0.4114554855E+06      0.4761017726E+06      0.6710415241E+06      0.8902590898E+05
                                                   Max.-Head-Change                        Max.-Flux-Residual
  Residual-Control   Outer-Iter.   Inner-Iter.     Column Row Layer    Max.-Head-Change    Column Row Layer    Max.-Flux-Residual            L2-New               L2-Old           Solver-Max-Delh
         11                10           0           320  213     1       0.1760332777E+04     320  213    1      -0.2910557155E+06      0.3438732325E+06      0.4761017726E+06      0.8902590898E+05
         12                10           0           320  213     1       0.1232232923E+04     320  213    1      -0.2067758780E+06      0.2532742314E+06      0.3438732325E+06      0.8902590898E+05
         13                10           0           320  213     1       0.8625630312E+03     320  213    1      -0.1477799927E+06      0.1924762284E+06      0.2532742314E+06      0.8902590898E+05
         14                10           0           320  213     1       0.6037941116E+03     320  213    1      -0.1064828737E+06      0.1529284590E+06      0.1924762284E+06      0.8902590898E+05
         15                10           0           320  213     1       0.4226558709E+03     320  213    1      -0.7757489090E+05      0.1282157272E+06      0.1529284590E+06      0.8902590898E+05
         16                10           0           320  213     1       0.2958591046E+03     319  215    1      -0.7410940243E+05      0.1134062073E+06      0.1282157272E+06      0.8902590898E+05
         17                10           0           320  213     1       0.2071013697E+03     319  215    1      -0.7416694309E+05      0.1048207324E+06      0.1134062073E+06      0.8902590898E+05
          0                11           4           317  212     1       0.1270078377E+04     319  215    1      -0.7420722154E+05      0.9992848263E+05      0.1048207324E+06      0.1270078377E+04
          1                11           0           317  212     1       0.8890548490E+03     317  215    1       0.1240640840E+06      0.2219668004E+06      0.9992848263E+05      0.1270078377E+04
          2                11           0           317  212     1       0.6223383837E+03     317  215    1       0.6508492767E+05      0.1451444782E+06      0.2219668004E+06      0.1270078377E+04
                                                   Max.-Head-Change                        Max.-Flux-Residual
  Residual-Control   Outer-Iter.   Inner-Iter.     Column Row Layer    Max.-Head-Change    Column Row Layer    Max.-Flux-Residual            L2-New               L2-Old           Solver-Max-Delh
          0                12           5           319  214     1       0.5521812729E+03     318  212    1      -0.4975228201E+05      0.9833158507E+05      0.1451444782E+06      0.5521812729E+03
          0                13           4           318  213     1       0.7082252254E+03     318  216    1      -0.1960330332E+05      0.3653620719E+05      0.9833158507E+05      0.7082252254E+03
          1                13           0           318  213     1       0.4957576493E+03     318  213    1      -0.8143487136E+05      0.1177242402E+06      0.3653620719E+05      0.7082252254E+03
          2                13           0           318  213     1       0.3470303486E+03     319  215    1      -0.3747635775E+05      0.7047974980E+05      0.1177242402E+06      0.7082252254E+03
          3                13           0           318  213     1       0.2429212399E+03     318  215    1       0.2429839776E+05      0.4433963046E+05      0.7047974980E+05      0.7082252254E+03
          0                14           3           318  212     1       0.2148492518E+03     318  215    1       0.1827371423E+05      0.3626264928E+05      0.4433963046E+05      0.2148492518E+03
          1                14           0           318  212     1       0.1503944737E+03     318  212    1      -0.4958501610E+05      0.5769397144E+05      0.3626264928E+05      0.2148492518E+03
          2                14           0           318  212     1       0.1052761298E+03     318  212    1      -0.4230770808E+05      0.5225671938E+05      0.5769397144E+05      0.2148492518E+03
          3                14           0           318  212     1       0.7369328959E+02     318  212    1      -0.3207353550E+05      0.4491685840E+05      0.5225671938E+05      0.2148492518E+03
          0                15           3           320  212     1       0.3917938485E+02     318  212    1      -0.1847503791E+05      0.3685392455E+05      0.4491685840E+05      0.3917938485E+02
                                                   Max.-Head-Change                        Max.-Flux-Residual
  Residual-Control   Outer-Iter.   Inner-Iter.     Column Row Layer    Max.-Head-Change    Column Row Layer    Max.-Flux-Residual            L2-New               L2-Old           Solver-Max-Delh
          0                16           3           317  215     1       0.1775925407E+03     318  212    1      -0.1263377218E+05      0.2259135057E+05      0.3685392455E+05      0.1775925407E+03
          0                17           3           317  215     1       0.3844339343E+03     318  212    1      -0.8612475465E+04      0.1427616072E+05      0.2259135057E+05      0.3844339343E+03
          0                18           3           317  215     1       0.4458585180E+03     318  212    1      -0.5853538696E+04      0.9107204203E+04      0.1427616072E+05      0.4458585180E+03
          0                19           2           317  215     1       0.3771667842E+03     318  212    1      -0.3970534480E+04      0.5857401773E+04      0.9107204203E+04      0.3771667842E+03
          0                20           2           317  215     1       0.2775519546E+03     318  212    1      -0.2689057186E+04      0.3779357551E+04      0.5857401773E+04      0.2775519546E+03
          0                21           2           317  215     1       0.1916366969E+03     318  212    1      -0.1818453941E+04      0.2451173362E+04      0.3779357551E+04      0.1916366969E+03
          0                22           2           317  215     1       0.1272829160E+03     318  212    1      -0.1227737048E+04      0.1592550505E+04      0.2451173362E+04      0.1272829160E+03
          0                23           2           317  215     1       0.8214040611E+02     318  212    1      -0.8274952556E+03      0.1037301607E+04      0.1592550505E+04      0.8214040611E+02
          0                24           2           317  215     1       0.5187124043E+02     318  212    1      -0.5568290028E+03      0.6785670361E+03      0.1037301607E+04      0.5187124043E+02
          0                25           2           317  213     1       0.2538757307E+03     318  212    1      -0.3742070994E+03      0.4471122580E+03      0.6785670361E+03      0.2538757307E+03
                                                   Max.-Head-Change                        Max.-Flux-Residual
  Residual-Control   Outer-Iter.   Inner-Iter.     Column Row Layer    Max.-Head-Change    Column Row Layer    Max.-Flux-Residual            L2-New               L2-Old           Solver-Max-Delh
          1                25           0           317  213     1       0.1777130085E+03     317  213    1      -0.5851433986E+05      0.6330132690E+05      0.4471122580E+03      0.2538757307E+03
          2                25           0           317  213     1       0.1243991038E+03     317  213    1      -0.4612448105E+05      0.4937940335E+05      0.6330132690E+05      0.2538757307E+03
          3                25           0           317  213     1       0.8707937118E+02     317  213    1      -0.3745158003E+05      0.3967696283E+05      0.4937940335E+05      0.2538757307E+03
          4                25           0           317  213     1       0.6095555879E+02     317  213    1      -0.2527169981E+05      0.2655167429E+05      0.3967696283E+05      0.2538757307E+03
          5                25           0           317  213     1       0.4266889043E+02     317  213    1      -0.1482685757E+05      0.1545904145E+05      0.2655167429E+05      0.2538757307E+03
          6                25           0           317  213     1       0.2986822279E+02     317  213    1      -0.8834891177E+04      0.9164164670E+04      0.1545904145E+05      0.2538757307E+03
          7                25           0           317  213     1       0.2090775560E+02     317  213    1      -0.5287032049E+04      0.5474957348E+04      0.9164164670E+04      0.2538757307E+03
          8                25           0           317  213     1       0.1463542867E+02     317  213    1      -0.3120324155E+04      0.3246008977E+04      0.5474957348E+04      0.2538757307E+03
          9                25           0           317  213     1       0.1024479989E+02     317  213    1      -0.1758857442E+04      0.1868035963E+04      0.3246008977E+04      0.2538757307E+03
         10                25           0           317  213     1       0.7171359803E+01     317  213    1      -0.8818928624E+03      0.1017392661E+04      0.1868035963E+04      0.2538757307E+03
                                                   Max.-Head-Change                        Max.-Flux-Residual
  Residual-Control   Outer-Iter.   Inner-Iter.     Column Row Layer    Max.-Head-Change    Column Row Layer    Max.-Flux-Residual            L2-New               L2-Old           Solver-Max-Delh
         11                25           0           317  213     1       0.5019951777E+01     318  212    1      -0.3706943928E+03      0.5505952597E+03      0.1017392661E+04      0.2538757307E+03
          0                26           2           317  213     1       0.2421348215E+03     318  212    1      -0.3717478890E+03      0.4440650388E+03      0.5505952597E+03      0.2421348215E+03
          1                26           0           317  213     1       0.1694943722E+03     317  213    1      -0.5741122523E+05      0.6205930336E+05      0.4440650388E+03      0.2421348215E+03
          2                26           0           317  213     1       0.1186460585E+03     317  213    1      -0.4559728877E+05      0.4878783318E+05      0.6205930336E+05      0.2421348215E+03
          3                26           0           317  213     1       0.8305223954E+02     317  213    1      -0.3732753339E+05      0.3953823399E+05      0.4878783318E+05      0.2421348215E+03
          4                26           0           317  213     1       0.5813656669E+02     317  213    1      -0.2570962049E+05      0.2701882246E+05      0.3953823399E+05      0.2421348215E+03
          5                26           0           317  213     1       0.4069559599E+02     317  213    1      -0.1561994904E+05      0.1629647612E+05      0.2701882246E+05      0.2421348215E+03
          6                26           0           317  213     1       0.2848691671E+02     317  213    1      -0.9757088406E+04      0.1012833723E+05      0.1629647612E+05      0.2421348215E+03
          7                26           0           317  213     1       0.1994084135E+02     317  213    1      -0.6241041549E+04      0.6463098050E+04      0.1012833723E+05      0.2421348215E+03
          8                26           0           317  213     1       0.1395858871E+02     317  213    1      -0.4067906985E+04      0.4217420761E+04      0.6463098050E+04      0.2421348215E+03
                                                   Max.-Head-Change                        Max.-Flux-Residual
  Residual-Control   Outer-Iter.   Inner-Iter.     Column Row Layer    Max.-Head-Change    Column Row Layer    Max.-Flux-Residual            L2-New               L2-Old           Solver-Max-Delh
          9                26           0           317  213     1       0.9771011931E+01     317  213    1      -0.2687880926E+04      0.2805124267E+04      0.4217420761E+04      0.2421348215E+03
         10                26           0           317  213     1       0.6839708235E+01     317  213    1      -0.1791035073E+04      0.1900074620E+04      0.2805124267E+04      0.2421348215E+03
         11                26           0           317  213     1       0.4787795683E+01     317  213    1      -0.1197137448E+04      0.1315422327E+04      0.1900074620E+04      0.2421348215E+03
         12                26           0           317  213     1       0.3351456921E+01     317  213    1      -0.7980174021E+03      0.9408287551E+03      0.1315422327E+04      0.2421348215E+03
         13                26           0           317  213     1       0.2346019805E+01     317  213    1      -0.5267714345E+03      0.7083889453E+03      0.9408287551E+03      0.2421348215E+03
         14                26           0           317  213     1       0.1642213835E+01     318  212    1      -0.3705506361E+03      0.5728206409E+03      0.7083889453E+03      0.2421348215E+03
         15                26           0           317  213     1       0.1149549665E+01     318  212    1      -0.3709097750E+03      0.5004430046E+03      0.5728206409E+03      0.2421348215E+03
          0                27           2           317  215     1       0.3085242746E+02     318  212    1      -0.3711611910E+03      0.4655610004E+03      0.5004430046E+03      0.3085242746E+02
          0                28           2           317  215     1       0.1988768105E+02     318  212    1      -0.2494351762E+03      0.3114631686E+03      0.4655610004E+03      0.1988768105E+02
          0                29           2           318  215     1       0.3300897865E+02     318  212    1      -0.1676429569E+03      0.2092265631E+03      0.3114631686E+03      0.3300897865E+02
                                                   Max.-Head-Change                        Max.-Flux-Residual
  Residual-Control   Outer-Iter.   Inner-Iter.     Column Row Layer    Max.-Head-Change    Column Row Layer    Max.-Flux-Residual            L2-New               L2-Old           Solver-Max-Delh
          1                29           0           318  215     1       0.2310628466E+02     318  215    1      -0.3690888191E+04      0.3768589648E+04      0.2092265631E+03      0.3300897865E+02
          2                29           0           318  215     1       0.1617439899E+02     318  215    1      -0.1727356086E+04      0.1756541695E+04      0.3768589648E+04      0.3300897865E+02
          3                29           0           318  215     1       0.1132207910E+02     318  215    1      -0.5580443076E+03      0.5939871336E+03      0.1756541695E+04      0.3300897865E+02
          0                30           2           318  215     1       0.3153466476E+02     318  212    1      -0.1483751767E+03      0.1852087103E+03      0.5939871336E+03      0.3153466476E+02
          1                30           0           318  215     1       0.2207426496E+02     318  215    1      -0.6068877083E+04      0.6259023046E+04      0.1852087103E+03      0.3153466476E+02
          2                30           0           318  215     1       0.1545198521E+02     318  215    1      -0.3784209104E+04      0.3879563420E+04      0.6259023046E+04      0.3153466476E+02
          3                30           0           318  215     1       0.1081638946E+02     318  215    1      -0.2407444744E+04      0.2455051315E+04      0.3879563420E+04      0.3153466476E+02
          4                30           0           318  215     1       0.7571472493E+01     318  215    1      -0.1560386313E+04      0.1589037183E+04      0.2455051315E+04      0.3153466476E+02
          5                30           0           318  215     1       0.5300030655E+01     318  215    1      -0.1006770451E+04      0.1034687899E+04      0.1589037183E+04      0.3153466476E+02
          6                30           0           318  215     1       0.3710021395E+01     318  215    1      -0.6311930781E+03      0.6648206574E+03      0.1034687899E+04      0.3153466476E+02
                                                   Max.-Head-Change                        Max.-Flux-Residual
  Residual-Control   Outer-Iter.   Inner-Iter.     Column Row Layer    Max.-Head-Change    Column Row Layer    Max.-Flux-Residual            L2-New               L2-Old           Solver-Max-Delh
          7                30           0           318  215     1       0.2597014932E+01     318  215    1      -0.3741462456E+03      0.4215613315E+03      0.6648206574E+03      0.3153466476E+02
          8                30           0           318  215     1       0.1817910422E+01     318  215    1      -0.1970835547E+03      0.2718283240E+03      0.4215613315E+03      0.3153466476E+02
          0                31           2           318  213     1       0.9978766304E+01     318  212    1      -0.1454746842E+03      0.1983107651E+03      0.2718283240E+03      0.9978766304E+01
          1                31           0           318  213     1       0.6985136294E+01     318  213    1      -0.1137499579E+04      0.1147243018E+04      0.1983107651E+03      0.9978766304E+01
          2                31           0           318  213     1       0.4889595322E+01     318  213    1      -0.6452300235E+03      0.6638576021E+03      0.1147243018E+04      0.9978766304E+01
          3                31           0           318  213     1       0.3422716667E+01     318  213    1      -0.3234712722E+03      0.3642360594E+03      0.6638576021E+03      0.9978766304E+01
          0                32           2           317  215     1       0.8317629522E+01     318  212    1      -0.1287311137E+03      0.2067985745E+03      0.3642360594E+03      0.8317629522E+01
          0                33           2           317  215     1       0.6002270422E+01     318  212    1      -0.8661651628E+02      0.1328845318E+03      0.2067985745E+03      0.6002270422E+01
          0                34           2           317  215     1       0.3011794510E+02     318  212    1      -0.5837228401E+02      0.8695292985E+02      0.1328845318E+03      0.3011794510E+02
          1                34           0           317  215     1       0.2108256121E+02     317  215    1      -0.2725913670E+04      0.2742602035E+04      0.8695292985E+02      0.3011794510E+02
                                                   Max.-Head-Change                        Max.-Flux-Residual
  Residual-Control   Outer-Iter.   Inner-Iter.     Column Row Layer    Max.-Head-Change    Column Row Layer    Max.-Flux-Residual            L2-New               L2-Old           Solver-Max-Delh
          2                34           0           317  215     1       0.1475779260E+02     317  215    1      -0.1189583951E+04      0.1194505633E+04      0.2742602035E+04      0.3011794510E+02
          3                34           0           317  215     1       0.1033045464E+02     317  215    1      -0.2297381967E+03      0.2404580864E+03      0.1194505633E+04      0.3011794510E+02
          0                35           2           317  215     1       0.2813423412E+02     318  212    1      -0.5180515757E+02      0.7675278099E+02      0.2404580864E+03      0.2813423412E+02
          1                35           0           317  215     1       0.1969396355E+02     317  215    1      -0.4411506444E+04      0.4452838554E+04      0.7675278099E+02      0.2813423412E+02
          2                35           0           317  215     1       0.1378577425E+02     317  215    1      -0.2708290726E+04      0.2724787936E+04      0.4452838554E+04      0.2813423412E+02
          3                35           0           317  215     1       0.9650041810E+01     317  215    1      -0.1682112114E+04      0.1689464758E+04      0.2724787936E+04      0.2813423412E+02
          4                35           0           317  215     1       0.6755029152E+01     317  215    1      -0.1015811949E+04      0.1020299434E+04      0.1689464758E+04      0.2813423412E+02
          5                35           0           317  215     1       0.4728520326E+01     317  215    1      -0.5724496474E+03      0.5773511682E+03      0.1020299434E+04      0.2813423412E+02
          6                35           0           317  215     1       0.3309964172E+01     317  215    1      -0.2733894656E+03      0.2825159279E+03      0.5773511682E+03      0.2813423412E+02
          7                35           0           317  215     1       0.2316974881E+01     317  215    1      -0.6958111966E+02      0.1000198232E+03      0.2825159279E+03      0.2813423412E+02
                                                   Max.-Head-Change                        Max.-Flux-Residual
  Residual-Control   Outer-Iter.   Inner-Iter.     Column Row Layer    Max.-Head-Change    Column Row Layer    Max.-Flux-Residual            L2-New               L2-Old           Solver-Max-Delh
          0                36           2           317  215     1       0.2765666262E+02     318  212    1      -0.5040119724E+02      0.7459079832E+02      0.1000198232E+03      0.2765666262E+02
          1                36           0           317  215     1       0.1935966350E+02     317  215    1      -0.4813547435E+04      0.4862534021E+04      0.7459079832E+02      0.2765666262E+02
          2                36           0           317  215     1       0.1355176422E+02     317  215    1      -0.3087481668E+04      0.3108394661E+04      0.4862534021E+04      0.2765666262E+02
          3                36           0           317  215     1       0.9486234794E+01     317  215    1      -0.2032360348E+04      0.2042272640E+04      0.3108394661E+04      0.2765666262E+02
          4                36           0           317  215     1       0.6640364243E+01     317  215    1      -0.1357869949E+04      0.1363467410E+04      0.2042272640E+04      0.2765666262E+02
          5                36           0           317  215     1       0.4648254891E+01     317  215    1      -0.9079985410E+03      0.9123418778E+03      0.1363467410E+04      0.2765666262E+02
          6                36           0           317  215     1       0.3253778368E+01     317  215    1      -0.6040017734E+03      0.6087576821E+03      0.9123418778E+03      0.2765666262E+02
          7                36           0           317  215     1       0.2277644819E+01     317  215    1      -0.3965515138E+03      0.4030357863E+03      0.6087576821E+03      0.2765666262E+02
          8                36           0           317  215     1       0.1594351346E+01     317  215    1      -0.2539565967E+03      0.2637534178E+03      0.4030357863E+03      0.2765666262E+02
          9                36           0           317  215     1       0.1116045923E+01     317  215    1      -0.1554240849E+03      0.1710283461E+03      0.2637534178E+03      0.2765666262E+02
                                                   Max.-Head-Change                        Max.-Flux-Residual
  Residual-Control   Outer-Iter.   Inner-Iter.     Column Row Layer    Max.-Head-Change    Column Row Layer    Max.-Flux-Residual            L2-New               L2-Old           Solver-Max-Delh
         10                36           0           317  215     1       0.7812321330E+00     317  215    1      -0.8708045271E+02      0.1128239861E+03      0.1710283461E+03      0.2765666262E+02
         11                36           0           317  215     1       0.5468624838E+00     318  212    1      -0.4993234814E+02      0.8222485009E+02      0.1128239861E+03      0.2765666262E+02
          0                37           2           317  212     1       0.5093798257E+01     318  212    1      -0.5007296074E+02      0.7265943999E+02      0.8222485009E+02      0.5093798257E+01
          0                38           2           317  212     1       0.5785426985E+01     318  212    1      -0.3382633724E+02      0.4812315356E+02      0.7265943999E+02      0.5785426985E+01
          0                39           2           317  212     1       0.6176189921E+01     318  212    1      -0.2289105242E+02      0.3229558203E+02      0.4812315356E+02      0.6176189921E+01
          0                40           2           317  212     1       0.6193448035E+01     318  212    1      -0.1551365632E+02      0.2192676661E+02      0.3229558203E+02      0.6193448035E+01
          0                41           2           317  212     1       0.5849251938E+01     318  212    1      -0.1052495765E+02      0.1503310901E+02      0.2192676661E+02      0.5849251938E+01
          0                42           2           317  212     1       0.5232065791E+01     318  212    1      -0.7144958555E+01      0.1038903896E+02      0.1503310901E+02      0.5232065791E+01
          0                43           2           317  212     1       0.4466765806E+01     318  212    1      -0.4851917242E+01      0.7225543723E+01      0.1038903896E+02      0.4466765806E+01
          0                44           2           317  212     1       0.3670729840E+01     318  212    1      -0.3295302402E+01      0.5051316698E+01      0.7225543723E+01      0.3670729840E+01
                                                   Max.-Head-Change                        Max.-Flux-Residual
  Residual-Control   Outer-Iter.   Inner-Iter.     Column Row Layer    Max.-Head-Change    Column Row Layer    Max.-Flux-Residual            L2-New               L2-Old           Solver-Max-Delh
          0                45           2           317  212     1       0.2927664156E+01     318  212    1      -0.2238469483E+01      0.3546527624E+01      0.5051316698E+01      0.2927664156E+01
          0                46           2           317  212     1       0.2282663514E+01     318  212    1      -0.1521037181E+01      0.2499337573E+01      0.3546527624E+01      0.2282663514E+01
          0                47           2           317  212     1       0.1750228073E+01     317  213    1      -0.1094052643E+01      0.1767407024E+01      0.2499337573E+01      0.1750228073E+01
          0                48           2           317  212     1       0.1325844092E+01     317  213    1      -0.7929594563E+00      0.1254036206E+01      0.1767407024E+01      0.1325844092E+01
          0                49           2           317  212     1       0.9957440034E+00     317  213    1      -0.5742742470E+00      0.8929980209E+00      0.1254036206E+01      0.9957440034E+00
          0                50           2           317  212     1       0.7433033834E+00     317  213    1      -0.4156244374E+00      0.6386702431E+00      0.8929980209E+00      0.7433033834E+00
          0                51           2           317  212     1       0.5525105597E+00     317  213    1      -0.3006354193E+00      0.4594953591E+00      0.6386702431E+00      0.5525105597E+00
          0                52           2           317  212     1       0.4094793274E+00     317  213    1      -0.2173546096E+00      0.3335833783E+00      0.4594953591E+00      0.4094793274E+00
          0                53           2           317  212     1       0.3028539957E+00     317  213    1      -0.1570761277E+00      0.2457148847E+00      0.3335833783E+00      0.3028539957E+00
          0                54           2           317  212     1       0.2236753760E+00     317  213    1      -0.1134697025E+00      0.1852567480E+00      0.2457148847E+00      0.2236753760E+00
                                                   Max.-Head-Change                        Max.-Flux-Residual
  Residual-Control   Outer-Iter.   Inner-Iter.     Column Row Layer    Max.-Head-Change    Column Row Layer    Max.-Flux-Residual            L2-New               L2-Old           Solver-Max-Delh
          0                55           2           458  453     1       0.1798438295E+00     317  213    1      -0.8193856598E-01      0.1446640860E+00      0.1852567480E+00      0.1798438295E+00
          0                56           2           458  453     1       0.1792350636E+00     317  213    1      -0.5914822670E-01      0.1183823214E+00      0.1446640860E+00      0.1792350636E+00
          0                57           2           458  453     1       0.1786283524E+00     458  453    1       0.5723535198E-01      0.1021157400E+00      0.1183823214E+00      0.1786283524E+00
          0                58           2           458  453     1       0.1780236889E+00     458  453    1       0.5704143985E-01      0.9248959211E-01      0.1021157400E+00      0.1780236889E+00
          0                59           2           458  453     1       0.1774210663E+00     458  453    1       0.5684818104E-01      0.8698368260E-01      0.9248959211E-01      0.1774210663E+00
          0                60           2           458  453     1       0.1768204777E+00     458  453    1       0.5665557337E-01      0.8388363982E-01      0.8698368260E-01      0.1768204777E+00
          1                60           0           458  453     1       0.1237743323E+00     317  212    1      -0.6247068937E+00      0.6299947839E+00      0.8388363982E-01      0.1768204777E+00
          0                61           2           458  453     1       0.1764021290E+00     458  453    1       0.5652120261E-01      0.8260474024E-01      0.6299947839E+00      0.1764021290E+00
          1                61           0           458  453     1       0.1234814882E+00     317  212    1      -0.3085145435E+01      0.3086206735E+01      0.8260474024E-01      0.1764021290E+00
          2                61           0           458  453     1       0.8643704028E-01     317  212    1      -0.1917417139E+01      0.1919134200E+01      0.3086206735E+01      0.1764021290E+00
                                                   Max.-Head-Change                        Max.-Flux-Residual
  Residual-Control   Outer-Iter.   Inner-Iter.     Column Row Layer    Max.-Head-Change    Column Row Layer    Max.-Flux-Residual            L2-New               L2-Old           Solver-Max-Delh
          3                61           0           458  453     1       0.6050592716E-01     317  212    1      -0.1100019356E+01      0.1103022494E+01      0.1919134200E+01      0.1764021290E+00
          4                61           0           458  453     1       0.4235414829E-01     317  212    1      -0.5278468031E+00      0.5340965540E+00      0.1103022494E+01      0.1764021290E+00
          5                61           0           458  453     1       0.2964790330E-01     317  212    1      -0.1273289064E+00      0.1512103731E+00      0.5340965540E+00      0.1764021290E+00
          0                62           2           458  453     1       0.1763035487E+00     458  453    1       0.5648901632E-01      0.8237731311E-01      0.1512103731E+00      0.1763035487E+00
          1                62           0           458  453     1       0.1234124820E+00     317  212    1      -0.3566973409E+01      0.3567889167E+01      0.8237731311E-01      0.1763035487E+00
          2                62           0           458  453     1       0.8638873592E-01     317  212    1      -0.2450950170E+01      0.2452289917E+01      0.3567889167E+01      0.1763035487E+00
          3                62           0           458  453     1       0.6047211411E-01     317  212    1      -0.1669744887E+01      0.1671718730E+01      0.2452289917E+01      0.1763035487E+00
          4                62           0           458  453     1       0.4233047916E-01     317  212    1      -0.1122906573E+01      0.1125848140E+01      0.1671718730E+01      0.1763035487E+00
          5                62           0           458  453     1       0.2963133491E-01     317  212    1      -0.7401223945E+00      0.7445871137E+00      0.1125848140E+01      0.1763035487E+00
          6                62           0           458  453     1       0.2074193408E-01     317  212    1      -0.4721747644E+00      0.4791531967E+00      0.7445871137E+00      0.1763035487E+00
                                                   Max.-Head-Change                        Max.-Flux-Residual
  Residual-Control   Outer-Iter.   Inner-Iter.     Column Row Layer    Max.-Head-Change    Column Row Layer    Max.-Flux-Residual            L2-New               L2-Old           Solver-Max-Delh
          7                62           0           458  453     1       0.1451935361E-01     317  212    1      -0.2846120590E+00      0.2960572203E+00      0.4791531967E+00      0.1763035487E+00
          8                62           0           458  453     1       0.1016354735E-01     317  212    1      -0.1533184773E+00      0.1736588918E+00      0.2960572203E+00      0.1763035487E+00
          9                62           0           458  453     1       0.7114483026E-02     317  212    1      -0.6141312350E-01      0.1021075506E+00      0.1736588918E+00      0.1763035487E+00
          0                63           2           458  453     1       0.1762815202E+00     458  453    1       0.5648129270E-01      0.8219352321E-01      0.1021075506E+00      0.1762815202E+00
          0                64           2           458  453     1       0.1756847625E+00     458  453    1       0.5628991635E-01      0.8115213825E-01      0.8219352321E-01      0.1756847625E+00
          0                65           2           458  453     1       0.1750900191E+00     458  453    1       0.5609918487E-01      0.8050325930E-01      0.8115213825E-01      0.1750900191E+00
          0                66           2           458  453     1       0.1744972831E+00     458  453    1       0.5590909609E-01      0.8006386859E-01      0.8050325930E-01      0.1744972831E+00
          0                67           2           458  453     1       0.1739065479E+00     458  453    1       0.5571964786E-01      0.7973619769E-01      0.8006386859E-01      0.1739065479E+00
          0                68           2           458  453     1       0.1733178067E+00     458  453    1       0.5553083805E-01      0.7946822560E-01      0.7973619769E-01      0.1733178067E+00
          0                69           2           458  453     1       0.1727310528E+00     458  453    1       0.5534266450E-01      0.7923230258E-01      0.7946822560E-01      0.1727310528E+00
                                                   Max.-Head-Change                        Max.-Flux-Residual
  Residual-Control   Outer-Iter.   Inner-Iter.     Column Row Layer    Max.-Head-Change    Column Row Layer    Max.-Flux-Residual            L2-New               L2-Old           Solver-Max-Delh
          0                70           2           458  453     1       0.1721462794E+00     458  453    1       0.5515512511E-01      0.7901372937E-01      0.7923230258E-01      0.1721462794E+00
          0                71           2           458  453     1       0.1715634799E+00     458  453    1       0.5496821774E-01      0.7880468583E-01      0.7901372937E-01      0.1715634799E+00
          0                72           2           458  453     1       0.1709826477E+00     458  453    1       0.5478194028E-01      0.7860100778E-01      0.7880468583E-01      0.1709826477E+00
          0                73           2           458  453     1       0.1704037762E+00     458  453    1       0.5459629063E-01      0.7840047557E-01      0.7860100778E-01      0.1704037762E+00
          0                74           2           458  453     1       0.1698268586E+00     458  453    1       0.5441126667E-01      0.7820190469E-01      0.7840047557E-01      0.1698268586E+00
          0                75           2           458  453     1       0.1692518885E+00     458  453    1       0.5422686633E-01      0.7800466213E-01      0.7820190469E-01      0.1692518885E+00
          0                76           2           458  453     1       0.1686788593E+00     458  453    1       0.5404308750E-01      0.7780840892E-01      0.7800466213E-01      0.1686788593E+00
          0                77           2           458  453     1       0.1681077644E+00     458  453    1       0.5385992812E-01      0.7761296299E-01      0.7780840892E-01      0.1681077644E+00
          0                78           2           458  453     1       0.1675385973E+00     458  453    1       0.5367738611E-01      0.7741822605E-01      0.7761296299E-01      0.1675385973E+00
          0                79           2           458  453     1       0.1669713516E+00     458  453    1       0.5349545940E-01      0.7722414457E-01      0.7741822605E-01      0.1669713516E+00
                                                   Max.-Head-Change                        Max.-Flux-Residual
  Residual-Control   Outer-Iter.   Inner-Iter.     Column Row Layer    Max.-Head-Change    Column Row Layer    Max.-Flux-Residual            L2-New               L2-Old           Solver-Max-Delh
          0                80           2           458  453     1       0.1664060207E+00     458  453    1       0.5331414593E-01      0.7703068897E-01      0.7722414457E-01      0.1664060207E+00
          0                81           2           458  453     1       0.1658425982E+00     458  453    1       0.5313344365E-01      0.7683784246E-01      0.7703068897E-01      0.1658425982E+00
          0                82           2           458  453     1       0.1652810778E+00     458  453    1       0.5295335052E-01      0.7664559510E-01      0.7683784246E-01      0.1652810778E+00
          0                83           2           458  453     1       0.1647214529E+00     458  453    1       0.5277386450E-01      0.7645394064E-01      0.7664559510E-01      0.1647214529E+00
          0                84           2           458  453     1       0.1641637171E+00     458  453    1       0.5259498354E-01      0.7626287479E-01      0.7645394064E-01      0.1641637171E+00
          0                85           2           458  453     1       0.1636078642E+00     458  453    1       0.5241670564E-01      0.7607239434E-01      0.7626287479E-01      0.1636078642E+00
          0                86           2           458  453     1       0.1630538878E+00     458  453    1       0.5223902877E-01      0.7588249662E-01      0.7607239434E-01      0.1630538878E+00
          0                87           2           458  453     1       0.1625017816E+00     458  453    1       0.5206195092E-01      0.7569317928E-01      0.7588249662E-01      0.1625017816E+00
          0                88           2           458  453     1       0.1619515392E+00     458  453    1       0.5188547008E-01      0.7550444016E-01      0.7569317928E-01      0.1619515392E+00
          0                89           2           458  453     1       0.1614031543E+00     458  453    1       0.5170958425E-01      0.7531627717E-01      0.7550444016E-01      0.1614031543E+00
                                                   Max.-Head-Change                        Max.-Flux-Residual
  Residual-Control   Outer-Iter.   Inner-Iter.     Column Row Layer    Max.-Head-Change    Column Row Layer    Max.-Flux-Residual            L2-New               L2-Old           Solver-Max-Delh
          0                90           2           458  453     1       0.1608566208E+00     458  453    1       0.5153429145E-01      0.7512868828E-01      0.7531627717E-01      0.1608566208E+00
          0                91           2           458  453     1       0.1603119324E+00     458  453    1       0.5135958969E-01      0.7494167150E-01      0.7512868828E-01      0.1603119324E+00
          0                92           2           458  453     1       0.1597690829E+00     458  453    1       0.5118547698E-01      0.7475522484E-01      0.7494167150E-01      0.1597690829E+00
          0                93           2           458  453     1       0.1592280660E+00     458  453    1       0.5101195135E-01      0.7456934634E-01      0.7475522484E-01      0.1592280660E+00
          0                94           2           458  453     1       0.1586888757E+00     458  453    1       0.5083901086E-01      0.7438403407E-01      0.7456934634E-01      0.1586888757E+00
          0                95           2           458  453     1       0.1581515057E+00     458  453    1       0.5066665351E-01      0.7419928606E-01      0.7438403407E-01      0.1581515057E+00
          0                96           2           458  453     1       0.1576159499E+00     458  453    1       0.5049487738E-01      0.7401510039E-01      0.7419928606E-01      0.1576159499E+00
          0                97           2           458  453     1       0.1570822022E+00     458  453    1       0.5032368051E-01      0.7383147512E-01      0.7401510039E-01      0.1570822022E+00
          0                98           2           458  453     1       0.1565502565E+00     458  453    1       0.5015306096E-01      0.7364840834E-01      0.7383147512E-01      0.1565502565E+00
          0                99           2           458  453     1       0.1560201068E+00     458  453    1       0.4998301680E-01      0.7346589813E-01      0.7364840834E-01      0.1560201068E+00
                                                   Max.-Head-Change                        Max.-Flux-Residual
  Residual-Control   Outer-Iter.   Inner-Iter.     Column Row Layer    Max.-Head-Change    Column Row Layer    Max.-Flux-Residual            L2-New               L2-Old           Solver-Max-Delh
          0               100           2           458  453     1       0.1554917470E+00     458  453    1       0.4981354610E-01      0.7328394259E-01      0.7346589813E-01      0.1554917470E+00
          0               101           2           458  453     1       0.1549651710E+00     458  453    1       0.4964464695E-01      0.7310253981E-01      0.7328394259E-01      0.1549651710E+00
          0               102           2           458  453     1       0.1544403729E+00     458  453    1       0.4947631742E-01      0.7292168790E-01      0.7310253981E-01      0.1544403729E+00
          0               103           2           458  453     1       0.1539173466E+00     458  453    1       0.4930855561E-01      0.7274138497E-01      0.7292168790E-01      0.1539173466E+00
          0               104           2           458  453     1       0.1533960863E+00     458  453    1       0.4914135961E-01      0.7256162914E-01      0.7274138497E-01      0.1533960863E+00
          0               105           2           458  453     1       0.1528765859E+00     458  453    1       0.4897472754E-01      0.7238241854E-01      0.7256162914E-01      0.1528765859E+00
          0               106           2           458  453     1       0.1523588395E+00     458  453    1       0.4880865751E-01      0.7220375130E-01      0.7238241854E-01      0.1523588395E+00
          0               107           2           458  453     1       0.1518428412E+00     458  453    1       0.4864314762E-01      0.7202562555E-01      0.7220375130E-01      0.1518428412E+00
          0               108           2           458  453     1       0.1513285852E+00     458  453    1       0.4847819601E-01      0.7184803944E-01      0.7202562555E-01      0.1513285852E+00
          0               109           2           458  453     1       0.1508160655E+00     458  453    1       0.4831380080E-01      0.7167099113E-01      0.7184803944E-01      0.1508160655E+00
                                                   Max.-Head-Change                        Max.-Flux-Residual
  Residual-Control   Outer-Iter.   Inner-Iter.     Column Row Layer    Max.-Head-Change    Column Row Layer    Max.-Flux-Residual            L2-New               L2-Old           Solver-Max-Delh
          0               110           2           458  453     1       0.1503052763E+00     458  453    1       0.4814996013E-01      0.7149447877E-01      0.7167099113E-01      0.1503052763E+00
          0               111           2           458  453     1       0.1497962118E+00     458  453    1       0.4798667214E-01      0.7131850052E-01      0.7149447877E-01      0.1497962118E+00
          0               112           2           458  453     1       0.1492888661E+00     458  453    1       0.4782393499E-01      0.7114305456E-01      0.7131850052E-01      0.1492888661E+00
          0               113           2           458  453     1       0.1487832335E+00     458  453    1       0.4766174682E-01      0.7096813905E-01      0.7114305456E-01      0.1487832335E+00
          0               114           2           458  453     1       0.1482793082E+00     458  453    1       0.4750010579E-01      0.7079375219E-01      0.7096813905E-01      0.1482793082E+00
          0               115           2           458  453     1       0.1477770845E+00     458  453    1       0.4733901008E-01      0.7061989217E-01      0.7079375219E-01      0.1477770845E+00
          0               116           2           458  453     1       0.1472765566E+00     458  453    1       0.4717845785E-01      0.7044655717E-01      0.7061989217E-01      0.1472765566E+00
          0               117           2           458  453     1       0.1467777188E+00     458  453    1       0.4701844729E-01      0.7027374540E-01      0.7044655717E-01      0.1467777188E+00
          0               118           2           458  453     1       0.1462805654E+00     458  453    1       0.4685897658E-01      0.7010145507E-01      0.7027374540E-01      0.1462805654E+00
          0               119           2           458  453     1       0.1457850907E+00     458  453    1       0.4670004390E-01      0.6992968439E-01      0.7010145507E-01      0.1457850907E+00
                                                   Max.-Head-Change                        Max.-Flux-Residual
  Residual-Control   Outer-Iter.   Inner-Iter.     Column Row Layer    Max.-Head-Change    Column Row Layer    Max.-Flux-Residual            L2-New               L2-Old           Solver-Max-Delh
          0               120           2           458  453     1       0.1452912892E+00     458  453    1       0.4654164746E-01      0.6975843159E-01      0.6992968439E-01      0.1452912892E+00
          0               121           2           458  453     1       0.1447991550E+00     458  453    1       0.4638378546E-01      0.6958769488E-01      0.6975843159E-01      0.1447991550E+00
          0               122           2           458  453     1       0.1443086827E+00     458  453    1       0.4622645611E-01      0.6941747251E-01      0.6958769488E-01      0.1443086827E+00
          0               123           2           458  453     1       0.1438198667E+00     458  453    1       0.4606965763E-01      0.6924776270E-01      0.6941747251E-01      0.1438198667E+00
          0               124           2           458  453     1       0.1433327013E+00     458  453    1       0.4591338823E-01      0.6907856372E-01      0.6924776270E-01      0.1433327013E+00
          0               125           2           458  453     1       0.1428471809E+00     458  453    1       0.4575764613E-01      0.6890987379E-01      0.6907856372E-01      0.1428471809E+00
          0               126           2           458  453     1       0.1423633001E+00     458  453    1       0.4560242959E-01      0.6874169120E-01      0.6890987379E-01      0.1423633001E+00
          0               127           2           458  453     1       0.1418810534E+00     458  453    1       0.4544773682E-01      0.6857401418E-01      0.6874169120E-01      0.1418810534E+00
          0               128           2           458  453     1       0.1414004351E+00     458  453    1       0.4529356608E-01      0.6840684102E-01      0.6857401418E-01      0.1414004351E+00
          0               129           2           458  453     1       0.1409214399E+00     458  453    1       0.4513991562E-01      0.6824017000E-01      0.6840684102E-01      0.1409214399E+00
                                                   Max.-Head-Change                        Max.-Flux-Residual
  Residual-Control   Outer-Iter.   Inner-Iter.     Column Row Layer    Max.-Head-Change    Column Row Layer    Max.-Flux-Residual            L2-New               L2-Old           Solver-Max-Delh
          0               130           2           458  453     1       0.1404440623E+00     458  453    1       0.4498678369E-01      0.6807399938E-01      0.6824017000E-01      0.1404440623E+00
          0               131           2           458  453     1       0.1399682968E+00     458  453    1       0.4483416855E-01      0.6790832746E-01      0.6807399938E-01      0.1399682968E+00
          0               132           2           458  453     1       0.1394941379E+00     458  453    1       0.4468206847E-01      0.6774315253E-01      0.6790832746E-01      0.1394941379E+00
          0               133           2           458  453     1       0.1390215804E+00     458  453    1       0.4453048173E-01      0.6757847289E-01      0.6774315253E-01      0.1390215804E+00
          0               134           2           458  453     1       0.1385506187E+00     458  453    1       0.4437940660E-01      0.6741428685E-01      0.6757847289E-01      0.1385506187E+00
          0               135           2           458  453     1       0.1380812475E+00     458  453    1       0.4422884137E-01      0.6725059271E-01      0.6741428685E-01      0.1380812475E+00
          0               136           2           458  453     1       0.1376134614E+00     458  453    1       0.4407878433E-01      0.6708738879E-01      0.6725059271E-01      0.1376134614E+00
          0               137           2           458  453     1       0.1371472552E+00     458  453    1       0.4392923377E-01      0.6692467341E-01      0.6708738879E-01      0.1371472552E+00
          0               138           2           458  453     1       0.1366826234E+00     458  453    1       0.4378018800E-01      0.6676244491E-01      0.6692467341E-01      0.1366826234E+00
          0               139           2           458  453     1       0.1362195608E+00     458  453    1       0.4363164532E-01      0.6660070161E-01      0.6676244491E-01      0.1362195608E+00
                                                   Max.-Head-Change                        Max.-Flux-Residual
  Residual-Control   Outer-Iter.   Inner-Iter.     Column Row Layer    Max.-Head-Change    Column Row Layer    Max.-Flux-Residual            L2-New               L2-Old           Solver-Max-Delh
          0               140           2           458  453     1       0.1357580622E+00     458  453    1       0.4348360405E-01      0.6643944186E-01      0.6660070161E-01      0.1357580622E+00
          0               141           2           458  453     1       0.1352981221E+00     458  453    1       0.4333606251E-01      0.6627866400E-01      0.6643944186E-01      0.1352981221E+00
          0               142           2           458  453     1       0.1348397354E+00     458  453    1       0.4318901901E-01      0.6611836638E-01      0.6627866400E-01      0.1348397354E+00
          0               143           2           458  453     1       0.1343828968E+00     458  453    1       0.4304247189E-01      0.6595854736E-01      0.6611836638E-01      0.1343828968E+00
          0               144           2           458  453     1       0.1339276011E+00     458  453    1       0.4289641949E-01      0.6579920530E-01      0.6595854736E-01      0.1339276011E+00
          0               145           2           458  453     1       0.1334738432E+00     458  453    1       0.4275086014E-01      0.6564033857E-01      0.6579920530E-01      0.1334738432E+00
          0               146           2           458  453     1       0.1330216178E+00     458  453    1       0.4260579219E-01      0.6548194555E-01      0.6564033857E-01      0.1330216178E+00
          0               147           2           458  453     1       0.1325709198E+00     458  453    1       0.4246121400E-01      0.6532402461E-01      0.6548194555E-01      0.1325709198E+00
          0               148           2           458  453     1       0.1321217441E+00     458  453    1       0.4231712392E-01      0.6516657414E-01      0.6532402461E-01      0.1321217441E+00
          0               149           2           458  453     1       0.1316740854E+00     458  453    1       0.4217352031E-01      0.6500959253E-01      0.6516657414E-01      0.1316740854E+00
                                                   Max.-Head-Change                        Max.-Flux-Residual
  Residual-Control   Outer-Iter.   Inner-Iter.     Column Row Layer    Max.-Head-Change    Column Row Layer    Max.-Flux-Residual            L2-New               L2-Old           Solver-Max-Delh
          0               150           2           458  453     1       0.1312279387E+00     458  453    1       0.4203040154E-01      0.6485307817E-01      0.6500959253E-01      0.1312279387E+00
          0               151           2           458  453     1       0.1307832989E+00     458  453    1       0.4188776599E-01      0.6469702948E-01      0.6485307817E-01      0.1307832989E+00
          0               152           2           458  453     1       0.1303401610E+00     458  453    1       0.4174561203E-01      0.6454144485E-01      0.6469702948E-01      0.1303401610E+00
          0               153           2           458  453     1       0.1298985198E+00     458  453    1       0.4160393805E-01      0.6438632271E-01      0.6454144485E-01      0.1298985198E+00
          0               154           2           458  453     1       0.1294583703E+00     458  453    1       0.4146274244E-01      0.6423166146E-01      0.6438632271E-01      0.1294583703E+00
          0               155           2           458  453     1       0.1290197075E+00     458  453    1       0.4132202360E-01      0.6407745954E-01      0.6423166146E-01      0.1290197075E+00
          0               156           2           458  453     1       0.1285825265E+00     458  453    1       0.4118177991E-01      0.6392371537E-01      0.6407745954E-01      0.1285825265E+00
          0               157           2           458  453     1       0.1281468221E+00     458  453    1       0.4104200980E-01      0.6377042739E-01      0.6392371537E-01      0.1281468221E+00
          0               158           2           458  453     1       0.1277125894E+00     458  453    1       0.4090271167E-01      0.6361759403E-01      0.6377042739E-01      0.1277125894E+00
          0               159           2           458  453     1       0.1272798235E+00     458  453    1       0.4076388394E-01      0.6346521375E-01      0.6361759403E-01      0.1272798235E+00
                                                   Max.-Head-Change                        Max.-Flux-Residual
  Residual-Control   Outer-Iter.   Inner-Iter.     Column Row Layer    Max.-Head-Change    Column Row Layer    Max.-Flux-Residual            L2-New               L2-Old           Solver-Max-Delh
          0               160           2           458  453     1       0.1268485194E+00     458  453    1       0.4062552502E-01      0.6331328500E-01      0.6346521375E-01      0.1268485194E+00
          0               161           2           458  453     1       0.1264186722E+00     458  453    1       0.4048763335E-01      0.6316180624E-01      0.6331328500E-01      0.1264186722E+00
          0               162           2           458  453     1       0.1259902769E+00     458  453    1       0.4035020736E-01      0.6301077592E-01      0.6316180624E-01      0.1259902769E+00
          0               163           2           458  453     1       0.1255633288E+00     458  453    1       0.4021324549E-01      0.6286019252E-01      0.6301077592E-01      0.1255633288E+00
          0               164           2           458  453     1       0.1251378229E+00     458  453    1       0.4007674617E-01      0.6271005450E-01      0.6286019252E-01      0.1251378229E+00
          0               165           2           458  453     1       0.1247137543E+00     458  453    1       0.3994070786E-01      0.6256036035E-01      0.6271005450E-01      0.1247137543E+00
          0               166           2           458  453     1       0.1242911183E+00     458  453    1       0.3980512901E-01      0.6241110855E-01      0.6256036035E-01      0.1242911183E+00
          0               167           2           458  453     1       0.1238699099E+00     458  453    1       0.3967000807E-01      0.6226229759E-01      0.6241110855E-01      0.1238699099E+00
          0               168           2           458  453     1       0.1234501244E+00     458  453    1       0.3953534352E-01      0.6211392596E-01      0.6226229759E-01      0.1234501244E+00
          0               169           2           458  453     1       0.1230317570E+00     458  453    1       0.3940113381E-01      0.6196599217E-01      0.6211392596E-01      0.1230317570E+00
                                                   Max.-Head-Change                        Max.-Flux-Residual
  Residual-Control   Outer-Iter.   Inner-Iter.     Column Row Layer    Max.-Head-Change    Column Row Layer    Max.-Flux-Residual            L2-New               L2-Old           Solver-Max-Delh
          0               170           2           458  453     1       0.1226148029E+00     458  453    1       0.3926737742E-01      0.6181849472E-01      0.6196599217E-01      0.1226148029E+00
          0               171           2           458  453     1       0.1221992574E+00     458  453    1       0.3913407284E-01      0.6167143211E-01      0.6181849472E-01      0.1221992574E+00
          0               172           2           458  453     1       0.1217851157E+00     458  453    1       0.3900121854E-01      0.6152480287E-01      0.6167143211E-01      0.1217851157E+00
          0               173           2           458  453     1       0.1213723730E+00     458  453    1       0.3886881301E-01      0.6137860551E-01      0.6152480287E-01      0.1213723730E+00
          0               174           2           458  453     1       0.1209610246E+00     458  453    1       0.3873685474E-01      0.6123283856E-01      0.6137860551E-01      0.1209610246E+00
          0               175           2           458  453     1       0.1205510660E+00     458  453    1       0.3860534224E-01      0.6108750056E-01      0.6123283856E-01      0.1205510660E+00
          0               176           2           458  453     1       0.1201424923E+00     458  453    1       0.3847427401E-01      0.6094259003E-01      0.6108750056E-01      0.1201424923E+00
          0               177           2           458  453     1       0.1197352989E+00     458  453    1       0.3834364856E-01      0.6079810552E-01      0.6094259003E-01      0.1197352989E+00
          0               178           2           458  453     1       0.1193294811E+00     458  453    1       0.3821346439E-01      0.6065404557E-01      0.6079810552E-01      0.1193294811E+00
          0               179           2           458  453     1       0.1189250344E+00     458  453    1       0.3808372004E-01      0.6051040875E-01      0.6065404557E-01      0.1189250344E+00
                                                   Max.-Head-Change                        Max.-Flux-Residual
  Residual-Control   Outer-Iter.   Inner-Iter.     Column Row Layer    Max.-Head-Change    Column Row Layer    Max.-Flux-Residual            L2-New               L2-Old           Solver-Max-Delh
          0               180           2           458  453     1       0.1185219541E+00     458  453    1       0.3795441401E-01      0.6036719362E-01      0.6051040875E-01      0.1185219541E+00
          0               181           2           458  453     1       0.1181202356E+00     458  453    1       0.3782554485E-01      0.6022439877E-01      0.6036719362E-01      0.1181202356E+00
          0               182           2           458  453     1       0.1177198743E+00     458  453    1       0.3769711108E-01      0.6008202276E-01      0.6022439877E-01      0.1177198743E+00
          0               183           2           458  453     1       0.1173208656E+00     458  453    1       0.3756911124E-01      0.5994006417E-01      0.6008202276E-01      0.1173208656E+00
          0               184           2           458  453     1       0.1169232050E+00     458  453    1       0.3744154388E-01      0.5979852156E-01      0.5994006417E-01      0.1169232050E+00
          0               185           2           458  453     1       0.1165268880E+00     458  453    1       0.3731440753E-01      0.5965739353E-01      0.5979852156E-01      0.1165268880E+00
          0               186           2           458  453     1       0.1161319099E+00     458  453    1       0.3718770077E-01      0.5951667865E-01      0.5965739353E-01      0.1161319099E+00
          0               187           2           458  453     1       0.1157382664E+00     458  453    1       0.3706142214E-01      0.5937637553E-01      0.5951667865E-01      0.1157382664E+00
          0               188           2           458  453     1       0.1153459528E+00     458  453    1       0.3693557020E-01      0.5923648275E-01      0.5937637553E-01      0.1153459528E+00
          0               189           2           458  453     1       0.1149549648E+00     458  453    1       0.3681014352E-01      0.5909699892E-01      0.5923648275E-01      0.1149549648E+00
                                                   Max.-Head-Change                        Max.-Flux-Residual
  Residual-Control   Outer-Iter.   Inner-Iter.     Column Row Layer    Max.-Head-Change    Column Row Layer    Max.-Flux-Residual            L2-New               L2-Old           Solver-Max-Delh
          0               190           2           458  453     1       0.1145652978E+00     458  453    1       0.3668514068E-01      0.5895792264E-01      0.5909699892E-01      0.1145652978E+00
          0               191           2           458  453     1       0.1141769474E+00     458  453    1       0.3656056025E-01      0.5881925252E-01      0.5895792264E-01      0.1141769474E+00
          0               192           2           458  453     1       0.1137899092E+00     458  453    1       0.3643640081E-01      0.5868098719E-01      0.5881925252E-01      0.1137899092E+00
          0               193           2           458  453     1       0.1134041788E+00     458  453    1       0.3631266095E-01      0.5854312526E-01      0.5868098719E-01      0.1134041788E+00
          0               194           2           458  453     1       0.1130197516E+00     458  453    1       0.3618933925E-01      0.5840566535E-01      0.5854312526E-01      0.1130197516E+00
          0               195           2           458  453     1       0.1126366234E+00     458  453    1       0.3606643433E-01      0.5826860611E-01      0.5840566535E-01      0.1126366234E+00
          0               196           2           458  453     1       0.1122547898E+00     458  453    1       0.3594394476E-01      0.5813194616E-01      0.5826860611E-01      0.1122547898E+00
          0               197           2           458  453     1       0.1118742464E+00     458  453    1       0.3582186917E-01      0.5799568414E-01      0.5813194616E-01      0.1118742464E+00
          0               198           2           458  453     1       0.1114949888E+00     458  453    1       0.3570020615E-01      0.5785981870E-01      0.5799568414E-01      0.1114949888E+00
          0               199           2           458  453     1       0.1111170128E+00     458  453    1       0.3557895433E-01      0.5772434849E-01      0.5785981870E-01      0.1111170128E+00
                                                   Max.-Head-Change                        Max.-Flux-Residual
  Residual-Control   Outer-Iter.   Inner-Iter.     Column Row Layer    Max.-Head-Change    Column Row Layer    Max.-Flux-Residual            L2-New               L2-Old           Solver-Max-Delh
          0               200           2           458  453     1       0.1107403140E+00     458  453    1       0.3545811232E-01      0.5758927217E-01      0.5772434849E-01      0.1107403140E+00
          0               201           2           458  453     1       0.1103648880E+00     458  453    1       0.3533767874E-01      0.5745458844E-01      0.5758927217E-01      0.1103648880E+00
          0               202           2           458  453     1       0.1099907307E+00     458  453    1       0.3521765223E-01      0.5732029596E-01      0.5745458844E-01      0.1099907307E+00
          0               203           2           458  453     1       0.1096178377E+00     458  453    1       0.3509803141E-01      0.5718639340E-01      0.5732029596E-01      0.1096178377E+00
          0               204           2           458  453     1       0.1092462048E+00     458  453    1       0.3497881493E-01      0.5705287943E-01      0.5718639340E-01      0.1092462048E+00
          0               205           2           458  453     1       0.1088758277E+00     458  453    1       0.3486000141E-01      0.5691975273E-01      0.5705287943E-01      0.1088758277E+00
          0               206           2           458  453     1       0.1085067023E+00     458  453    1       0.3474158952E-01      0.5678701198E-01      0.5691975273E-01      0.1085067023E+00
          0               207           2           458  453     1       0.1081388242E+00     458  453    1       0.3462357790E-01      0.5665465586E-01      0.5678701198E-01      0.1081388242E+00
          0               208           2           458  453     1       0.1077721893E+00     458  453    1       0.3450596520E-01      0.5652268309E-01      0.5665465586E-01      0.1077721893E+00
          0               209           2           458  453     1       0.1074067933E+00     458  453    1       0.3438875009E-01      0.5639109238E-01      0.5652268309E-01      0.1074067933E+00
                                                   Max.-Head-Change                        Max.-Flux-Residual
  Residual-Control   Outer-Iter.   Inner-Iter.     Column Row Layer    Max.-Head-Change    Column Row Layer    Max.-Flux-Residual            L2-New               L2-Old           Solver-Max-Delh
          0               210           2           458  453     1       0.1070426322E+00     458  453    1       0.3427193123E-01      0.5625988244E-01      0.5639109238E-01      0.1070426322E+00
          0               211           2           458  453     1       0.1066797018E+00     458  453    1       0.3415550729E-01      0.5612905197E-01      0.5625988244E-01      0.1066797018E+00
          0               212           2           458  453     1       0.1063179978E+00     458  453    1       0.3403947693E-01      0.5599859968E-01      0.5612905197E-01      0.1063179978E+00
          0               213           2           458  453     1       0.1059575162E+00     458  453    1       0.3392383885E-01      0.5586852429E-01      0.5599859968E-01      0.1059575162E+00
          0               214           2           458  453     1       0.1055982529E+00     458  453    1       0.3380859171E-01      0.5573882452E-01      0.5586852429E-01      0.1055982529E+00
          0               215           2           458  453     1       0.1052402037E+00     458  453    1       0.3369373421E-01      0.5560949908E-01      0.5573882452E-01      0.1052402037E+00
          0               216           2           458  453     1       0.1048833645E+00     458  453    1       0.3357926504E-01      0.5548054672E-01      0.5560949908E-01      0.1048833645E+00
          0               217           2           458  453     1       0.1045277314E+00     458  453    1       0.3346518289E-01      0.5535196615E-01      0.5548054672E-01      0.1045277314E+00
          0               218           2           458  453     1       0.1041733001E+00     458  453    1       0.3335148646E-01      0.5522375612E-01      0.5535196615E-01      0.1041733001E+00
          0               219           2           458  453     1       0.1038200667E+00     458  453    1       0.3323817445E-01      0.5509591538E-01      0.5522375612E-01      0.1038200667E+00
                                                   Max.-Head-Change                        Max.-Flux-Residual
  Residual-Control   Outer-Iter.   Inner-Iter.     Column Row Layer    Max.-Head-Change    Column Row Layer    Max.-Flux-Residual            L2-New               L2-Old           Solver-Max-Delh
          0               220           2           458  453     1       0.1034680272E+00     458  453    1       0.3312524558E-01      0.5496844266E-01      0.5509591538E-01      0.1034680272E+00
          0               221           2           458  453     1       0.1031171774E+00     458  453    1       0.3301269855E-01      0.5484133671E-01      0.5496844266E-01      0.1031171774E+00
          0               222           2           458  453     1       0.1027675134E+00     458  453    1       0.3290053208E-01      0.5471459630E-01      0.5484133671E-01      0.1027675134E+00
          0               223           2           458  453     1       0.1024190313E+00     458  453    1       0.3278874490E-01      0.5458822018E-01      0.5471459630E-01      0.1024190313E+00
          0               224           2           458  453     1       0.1020717269E+00     458  453    1       0.3267733572E-01      0.5446220711E-01      0.5458822018E-01      0.1020717269E+00
          0               225           2           458  453     1       0.1017255964E+00     458  453    1       0.3256630328E-01      0.5433655587E-01      0.5446220711E-01      0.1017255964E+00
          0               226           2           458  453     1       0.1013806357E+00     458  453    1       0.3245564630E-01      0.5421126522E-01      0.5433655587E-01      0.1013806357E+00
          0               227           2           458  453     1       0.1010368411E+00     458  453    1       0.3234536354E-01      0.5408633395E-01      0.5421126522E-01      0.1010368411E+00
          0               228           2           458  453     1       0.1006942084E+00     458  453    1       0.3223545372E-01      0.5396176083E-01      0.5408633395E-01      0.1006942084E+00
          0               229           2           458  453     1       0.1003527338E+00     458  453    1       0.3212591560E-01      0.5383754465E-01      0.5396176083E-01      0.1003527338E+00
                                                   Max.-Head-Change                        Max.-Flux-Residual
  Residual-Control   Outer-Iter.   Inner-Iter.     Column Row Layer    Max.-Head-Change    Column Row Layer    Max.-Flux-Residual            L2-New               L2-Old           Solver-Max-Delh
          0               230           2           458  453     1       0.1000124134E+00     458  453    1       0.3201674793E-01      0.5371368420E-01      0.5383754465E-01      0.1000124134E+00
          0               231           2           458  453     1       0.9967324334E-01     458  453    1       0.3190794946E-01      0.5359017828E-01      0.5371368420E-01      0.9967324334E-01

    ------------------------------------------------
       NWT REQUIRED          231 OUTER ITERATIONS 
       AND A TOTAL OF        487 INNER ITERATIONS.
    ------------------------------------------------

 NO OUTPUT CONTROL FOR STRESS PERIOD    1   TIME STEP    1

 SOLVING FOR HEAD 
                                                   Max.-Head-Change                        Max.-Flux-Residual
  Residual-Control   Outer-Iter.   Inner-Iter.     Column Row Layer    Max.-Head-Change    Column Row Layer    Max.-Flux-Residual            L2-New               L2-Old           Solver-Max-Delh
          0                 1           3            77   92     1      -0.6897414125E+01     473  501    1      -0.2182383477E+05      0.1479884674E+06      0.5359017828E-01     -0.6897414125E+01
          0                 2           3           197   87     1       0.1151273939E+01     494  517    1       0.4089819001E+04      0.1718514935E+05      0.1479884674E+06      0.1151273939E+01
          0                 3           2           458  453     1       0.2588373812E+00     203   82    1      -0.4091044434E+03      0.1335340089E+04      0.1718514935E+05      0.2588373812E+00
          0                 4           2           458  453     1       0.2565050066E+00     202   90    1      -0.2210459581E+02      0.7217663059E+02      0.1335340089E+04      0.2565050066E+00
          0                 5           2           458  453     1       0.2541889088E+00     202   90    1      -0.3923346994E+01      0.5925683619E+01      0.7217663059E+02      0.2541889088E+00
          0                 6           2           458  453     1       0.2518934949E+00     202   90    1      -0.6963152354E+00      0.8849132124E+00      0.5925683619E+01      0.2518934949E+00
          0                 7           2           458  453     1       0.2496188045E+00     202   90    1      -0.1235750123E+00      0.1844282081E+00      0.8849132124E+00      0.2496188045E+00
          0                 8           2           458  453     1       0.2473646600E+00     458  453    1       0.5967059732E-01      0.1059409885E+00      0.1844282081E+00      0.2473646600E+00
          0                 9           2           458  453     1       0.2451308764E+00     458  453    1       0.5913251684E-01      0.1019143152E+00      0.1059409885E+00      0.2451308764E+00
          0                10           2           458  453     1       0.2429172698E+00     458  453    1       0.5859928500E-01      0.1011909579E+00      0.1019143152E+00      0.2429172698E+00
                                                   Max.-Head-Change                        Max.-Flux-Residual
  Residual-Control   Outer-Iter.   Inner-Iter.     Column Row Layer    Max.-Head-Change    Column Row Layer    Max.-Flux-Residual            L2-New               L2-Old           Solver-Max-Delh
          0                11           2           458  453     1       0.2407236579E+00     458  453    1       0.5807085665E-01      0.1005785904E+00      0.1011909579E+00      0.2407236579E+00
          0                12           2           458  453     1       0.2385498600E+00     458  453    1       0.5754718832E-01      0.9997417665E-01      0.1005785904E+00      0.2385498600E+00
          0                13           2           458  453     1       0.2363956969E+00     458  453    1       0.5702823718E-01      0.9937440295E-01      0.9997417665E-01      0.2363956969E+00
          0                14           2           458  453     1       0.2342609913E+00     458  453    1       0.5651396081E-01      0.9877912422E-01      0.9937440295E-01      0.2342609913E+00
          0                15           2           458  453     1       0.2321455671E+00     458  453    1       0.5600431718E-01      0.9818829674E-01      0.9877912422E-01      0.2321455671E+00
          0                16           2           458  453     1       0.2300492503E+00     458  453    1       0.5549926465E-01      0.9760188043E-01      0.9818829674E-01      0.2300492503E+00
          0                17           2           458  453     1       0.2279718681E+00     458  453    1       0.5499876194E-01      0.9701983569E-01      0.9760188043E-01      0.2279718681E+00
          0                18           2           458  453     1       0.2259132494E+00     458  453    1       0.5450276813E-01      0.9644212331E-01      0.9701983569E-01      0.2259132494E+00
          0                19           2           458  453     1       0.2238732245E+00     458  453    1       0.5401124270E-01      0.9586870446E-01      0.9644212331E-01      0.2238732245E+00
          0                20           2           458  453     1       0.2218516255E+00     458  453    1       0.5352414547E-01      0.9529954067E-01      0.9586870446E-01      0.2218516255E+00
                                                   Max.-Head-Change                        Max.-Flux-Residual
  Residual-Control   Outer-Iter.   Inner-Iter.     Column Row Layer    Max.-Head-Change    Column Row Layer    Max.-Flux-Residual            L2-New               L2-Old           Solver-Max-Delh
          0                21           2           458  453     1       0.2198482858E+00     458  453    1       0.5304143661E-01      0.9473459386E-01      0.9529954067E-01      0.2198482858E+00
          0                22           2           458  453     1       0.2178630405E+00     458  453    1       0.5256307667E-01      0.9417382630E-01      0.9473459386E-01      0.2178630405E+00
          0                23           2           458  453     1       0.2158957259E+00     458  453    1       0.5208902654E-01      0.9361720063E-01      0.9417382630E-01      0.2158957259E+00
          0                24           2           458  453     1       0.2139461801E+00     458  453    1       0.5161924746E-01      0.9306467984E-01      0.9361720063E-01      0.2139461801E+00
          0                25           2           458  453     1       0.2120142425E+00     458  453    1       0.5115370103E-01      0.9251622728E-01      0.9306467984E-01      0.2120142425E+00
          0                26           2           458  453     1       0.2100997539E+00     458  453    1       0.5069234918E-01      0.9197180666E-01      0.9251622728E-01      0.2100997539E+00
          0                27           2           458  453     1       0.2082025567E+00     458  453    1       0.5023515419E-01      0.9143138204E-01      0.9197180666E-01      0.2082025567E+00
          0                28           2           458  453     1       0.2063224946E+00     458  453    1       0.4978207867E-01      0.9089491780E-01      0.9143138204E-01      0.2063224946E+00
          0                29           2           458  453     1       0.2044594129E+00     458  453    1       0.4933308557E-01      0.9036237870E-01      0.9089491780E-01      0.2044594129E+00
          0                30           2           458  453     1       0.2026131579E+00     458  453    1       0.4888813817E-01      0.8983372982E-01      0.9036237870E-01      0.2026131579E+00
                                                   Max.-Head-Change                        Max.-Flux-Residual
  Residual-Control   Outer-Iter.   Inner-Iter.     Column Row Layer    Max.-Head-Change    Column Row Layer    Max.-Flux-Residual            L2-New               L2-Old           Solver-Max-Delh
          0                31           2           458  453     1       0.2007835778E+00     458  453    1       0.4844720009E-01      0.8930893680E-01      0.8983372982E-01      0.2007835778E+00
          0                32           2           458  453     1       0.1989705217E+00     458  453    1       0.4801023526E-01      0.8878796556E-01      0.8930893680E-01      0.1989705217E+00
          0                33           2           458  453     1       0.1971738405E+00     458  453    1       0.4757720794E-01      0.8827078219E-01      0.8878796556E-01      0.1971738405E+00
          0                34           2           458  453     1       0.1953933861E+00     458  453    1       0.4714808271E-01      0.8775735309E-01      0.8827078219E-01      0.1953933861E+00
          0                35           2           458  453     1       0.1936290119E+00     458  453    1       0.4672282448E-01      0.8724764498E-01      0.8775735309E-01      0.1936290119E+00
          0                36           2           458  453     1       0.1918805726E+00     458  453    1       0.4630139845E-01      0.8674162492E-01      0.8724764498E-01      0.1918805726E+00
          0                37           2           458  453     1       0.1901479243E+00     458  453    1       0.4588377014E-01      0.8623926027E-01      0.8674162492E-01      0.1901479243E+00
          0                38           2           458  453     1       0.1884309242E+00     458  453    1       0.4546990540E-01      0.8574051872E-01      0.8623926027E-01      0.1884309242E+00
          0                39           2           458  453     1       0.1867294311E+00     458  453    1       0.4505977037E-01      0.8524536827E-01      0.8574051872E-01      0.1867294311E+00
          0                40           2           458  453     1       0.1850433046E+00     458  453    1       0.4465333149E-01      0.8475377721E-01      0.8524536827E-01      0.1850433046E+00
                                                   Max.-Head-Change                        Max.-Flux-Residual
  Residual-Control   Outer-Iter.   Inner-Iter.     Column Row Layer    Max.-Head-Change    Column Row Layer    Max.-Flux-Residual            L2-New               L2-Old           Solver-Max-Delh
          0                41           2           458  453     1       0.1833724061E+00     458  453    1       0.4425055550E-01      0.8426571415E-01      0.8475377721E-01      0.1833724061E+00
          0                42           2           458  453     1       0.1817165979E+00     458  453    1       0.4385140944E-01      0.8378114803E-01      0.8426571415E-01      0.1817165979E+00
          0                43           2           458  453     1       0.1800757437E+00     458  453    1       0.4345586067E-01      0.8330004804E-01      0.8378114803E-01      0.1800757437E+00
          0                44           2           458  453     1       0.1784497084E+00     458  453    1       0.4306387680E-01      0.8282238370E-01      0.8330004804E-01      0.1784497084E+00
          0                45           2           458  453     1       0.1768383581E+00     458  453    1       0.4267542577E-01      0.8234812483E-01      0.8282238370E-01      0.1768383581E+00
          0                46           2           458  453     1       0.1752415601E+00     458  453    1       0.4229047578E-01      0.8187724152E-01      0.8234812483E-01      0.1752415601E+00
          0                47           2           458  453     1       0.1736591830E+00     458  453    1       0.4190899533E-01      0.8140970417E-01      0.8187724152E-01      0.1736591830E+00
          0                48           2           458  453     1       0.1720910964E+00     458  453    1       0.4153095320E-01      0.8094548345E-01      0.8140970417E-01      0.1720910964E+00
          0                49           2           458  453     1       0.1705371712E+00     458  453    1       0.4115631844E-01      0.8048455032E-01      0.8094548345E-01      0.1705371712E+00
          0                50           2           458  453     1       0.1689972796E+00     458  453    1       0.4078506039E-01      0.8002687604E-01      0.8048455032E-01      0.1689972796E+00
                                                   Max.-Head-Change                        Max.-Flux-Residual
  Residual-Control   Outer-Iter.   Inner-Iter.     Column Row Layer    Max.-Head-Change    Column Row Layer    Max.-Flux-Residual            L2-New               L2-Old           Solver-Max-Delh
          0                51           2           458  453     1       0.1674712947E+00     458  453    1       0.4041714866E-01      0.7957243211E-01      0.8002687604E-01      0.1674712947E+00
          0                52           2           458  453     1       0.1659590908E+00     458  453    1       0.4005255314E-01      0.7912119034E-01      0.7957243211E-01      0.1659590908E+00
          0                53           2           458  453     1       0.1644605436E+00     458  453    1       0.3969124399E-01      0.7867312281E-01      0.7912119034E-01      0.1644605436E+00
          0                54           2           458  453     1       0.1629755295E+00     458  453    1       0.3933319161E-01      0.7822820185E-01      0.7867312281E-01      0.1629755295E+00
          0                55           2           458  453     1       0.1615039264E+00     458  453    1       0.3897836671E-01      0.7778640008E-01      0.7822820185E-01      0.1615039264E+00
          0                56           2           458  453     1       0.1600456131E+00     458  453    1       0.3862674023E-01      0.7734769037E-01      0.7778640008E-01      0.1600456131E+00
          0                57           2           458  453     1       0.1586004696E+00     458  453    1       0.3827828337E-01      0.7691204586E-01      0.7734769037E-01      0.1586004696E+00
          0                58           2           458  453     1       0.1571683768E+00     458  453    1       0.3793296763E-01      0.7647943996E-01      0.7691204586E-01      0.1571683768E+00
          0                59           2           458  453     1       0.1557492168E+00     458  453    1       0.3759076471E-01      0.7604984633E-01      0.7647943996E-01      0.1557492168E+00
          0                60           2           458  453     1       0.1543428729E+00     458  453    1       0.3725164660E-01      0.7562323887E-01      0.7604984633E-01      0.1543428729E+00
                                                   Max.-Head-Change                        Max.-Flux-Residual
  Residual-Control   Outer-Iter.   Inner-Iter.     Column Row Layer    Max.-Head-Change    Column Row Layer    Max.-Flux-Residual            L2-New               L2-Old           Solver-Max-Delh
          0                61           2           458  453     1       0.1529492293E+00     458  453    1       0.3691558553E-01      0.7519959177E-01      0.7562323887E-01      0.1529492293E+00
          0                62           2           458  453     1       0.1515681712E+00     458  453    1       0.3658255398E-01      0.7477887943E-01      0.7519959177E-01      0.1515681712E+00
          0                63           2           458  453     1       0.1501995849E+00     458  453    1       0.3625252468E-01      0.7436107654E-01      0.7477887943E-01      0.1501995849E+00
          0                64           2           458  453     1       0.1488433578E+00     458  453    1       0.3592547060E-01      0.7394615799E-01      0.7436107654E-01      0.1488433578E+00
          0                65           2           458  453     1       0.1474993782E+00     458  453    1       0.3560136495E-01      0.7353409896E-01      0.7394615799E-01      0.1474993782E+00
          0                66           2           458  453     1       0.1461675356E+00     458  453    1       0.3528018120E-01      0.7312487484E-01      0.7353409896E-01      0.1461675356E+00
          0                67           2           458  453     1       0.1448477201E+00     458  453    1       0.3496189304E-01      0.7271846127E-01      0.7312487484E-01      0.1448477201E+00
          0                68           2           458  453     1       0.1435398234E+00     458  453    1       0.3464647439E-01      0.7231483412E-01      0.7271846127E-01      0.1435398234E+00
          0                69           2           458  453     1       0.1422437375E+00     458  453    1       0.3433389942E-01      0.7191396950E-01      0.7231483412E-01      0.1422437375E+00
          0                70           2           458  453     1       0.1409593560E+00     458  453    1       0.3402414254E-01      0.7151584376E-01      0.7191396950E-01      0.1409593560E+00
                                                   Max.-Head-Change                        Max.-Flux-Residual
  Residual-Control   Outer-Iter.   Inner-Iter.     Column Row Layer    Max.-Head-Change    Column Row Layer    Max.-Flux-Residual            L2-New               L2-Old           Solver-Max-Delh
          0                71           2           458  453     1       0.1396865730E+00     458  453    1       0.3371717835E-01      0.7112043347E-01      0.7151584376E-01      0.1396865730E+00
          0                72           2           458  453     1       0.1384252837E+00     458  453    1       0.3341298173E-01      0.7072771543E-01      0.7112043347E-01      0.1384252837E+00
          0                73           2           458  453     1       0.1371753845E+00     458  453    1       0.3311152775E-01      0.7033766667E-01      0.7072771543E-01      0.1371753845E+00
          0                74           2           458  453     1       0.1359367723E+00     458  453    1       0.3281279171E-01      0.6995026443E-01      0.7033766667E-01      0.1359367723E+00
          0                75           2           458  453     1       0.1347093452E+00     458  453    1       0.3251674914E-01      0.6956548618E-01      0.6995026443E-01      0.1347093452E+00
          0                76           2           458  453     1       0.1334930022E+00     458  453    1       0.3222337578E-01      0.6918330961E-01      0.6956548618E-01      0.1334930022E+00
          0                77           2           458  453     1       0.1322876431E+00     458  453    1       0.3193264761E-01      0.6880371263E-01      0.6918330961E-01      0.1322876431E+00
          0                78           2           458  453     1       0.1310926128E+00     458  453    1       0.3164454080E-01      0.6842667336E-01      0.6880371263E-01      0.1310926128E+00
          0                79           2           458  453     1       0.1299082937E+00     458  453    1       0.3135903295E-01      0.6805217069E-01      0.6842667336E-01      0.1299082937E+00
          0                80           2           458  453     1       0.1287346866E+00     458  453    1       0.3107610083E-01      0.6768018323E-01      0.6805217069E-01      0.1287346866E+00
                                                   Max.-Head-Change                        Max.-Flux-Residual
  Residual-Control   Outer-Iter.   Inner-Iter.     Column Row Layer    Max.-Head-Change    Column Row Layer    Max.-Flux-Residual            L2-New               L2-Old           Solver-Max-Delh
          0                81           2           458  453     1       0.1275716944E+00     458  453    1       0.3079572122E-01      0.6731068971E-01      0.6768018323E-01      0.1275716944E+00
          0                82           2           458  453     1       0.1264192208E+00     458  453    1       0.3051787108E-01      0.6694366905E-01      0.6731068971E-01      0.1264192208E+00
          0                83           2           457  455     1       0.1256367843E+00     458  453    1       0.3024252760E-01      0.6657910040E-01      0.6694366905E-01      0.1256367843E+00
          0                84           2           457  455     1       0.1250702015E+00     457  455    1       0.3010486028E-01      0.6621696308E-01      0.6657910040E-01      0.1250702015E+00
          0                85           2           457  455     1       0.1245061758E+00     457  455    1       0.2996942900E-01      0.6585723665E-01      0.6621696308E-01      0.1245061758E+00
          0                86           2           457  455     1       0.1239446956E+00     457  455    1       0.2983460597E-01      0.6549990083E-01      0.6585723665E-01      0.1239446956E+00
          0                87           2           457  455     1       0.1233857494E+00     457  455    1       0.2970038845E-01      0.6514493557E-01      0.6549990083E-01      0.1233857494E+00
          0                88           2           457  455     1       0.1228293259E+00     457  455    1       0.2956677374E-01      0.6479232100E-01      0.6514493557E-01      0.1228293259E+00
          0                89           2           457  455     1       0.1222754135E+00     457  455    1       0.2943375914E-01      0.6444203744E-01      0.6479232100E-01      0.1222754135E+00
          0                90           2           457  455     1       0.1217240009E+00     457  455    1       0.2930134197E-01      0.6409406541E-01      0.6444203744E-01      0.1217240009E+00
                                                   Max.-Head-Change                        Max.-Flux-Residual
  Residual-Control   Outer-Iter.   Inner-Iter.     Column Row Layer    Max.-Head-Change    Column Row Layer    Max.-Flux-Residual            L2-New               L2-Old           Solver-Max-Delh
          0                91           2           457  455     1       0.1211750769E+00     457  455    1       0.2916951954E-01      0.6374838562E-01      0.6409406541E-01      0.1211750769E+00
          0                92           2           457  455     1       0.1206286302E+00     457  455    1       0.2903828920E-01      0.6340497895E-01      0.6374838562E-01      0.1206286302E+00
          0                93           2           457  455     1       0.1200846495E+00     457  455    1       0.2890764829E-01      0.6306382650E-01      0.6340497895E-01      0.1200846495E+00
          0                94           2           457  455     1       0.1195431238E+00     457  455    1       0.2877759418E-01      0.6272490953E-01      0.6306382650E-01      0.1195431238E+00
          0                95           2           457  455     1       0.1190040419E+00     457  455    1       0.2864812424E-01      0.6238820948E-01      0.6272490953E-01      0.1190040419E+00
          0                96           2           457  455     1       0.1184673928E+00     457  455    1       0.2851923585E-01      0.6205370797E-01      0.6238820948E-01      0.1184673928E+00
          0                97           2           457  455     1       0.1179331656E+00     457  455    1       0.2839092641E-01      0.6172138682E-01      0.6205370797E-01      0.1179331656E+00
          0                98           2           457  455     1       0.1174013491E+00     457  455    1       0.2826319333E-01      0.6139122817E-01      0.6172138682E-01      0.1174013491E+00
          0                99           2           457  455     1       0.1168719327E+00     457  455    1       0.2813603403E-01      0.6106321432E-01      0.6139122817E-01      0.1168719327E+00
          0               100           2           457  455     1       0.1163449053E+00     457  455    1       0.2800944593E-01      0.6073732758E-01      0.6106321432E-01      0.1163449053E+00
                                                   Max.-Head-Change                        Max.-Flux-Residual
  Residual-Control   Outer-Iter.   Inner-Iter.     Column Row Layer    Max.-Head-Change    Column Row Layer    Max.-Flux-Residual            L2-New               L2-Old           Solver-Max-Delh
          0               101           2           457  455     1       0.1158202563E+00     457  455    1       0.2788342648E-01      0.6041355044E-01      0.6073732758E-01      0.1158202563E+00
          0               102           2           457  455     1       0.1152979749E+00     457  455    1       0.2775797314E-01      0.6009186556E-01      0.6041355044E-01      0.1152979749E+00
          0               103           2           457  455     1       0.1147780503E+00     457  455    1       0.2763308336E-01      0.5977225577E-01      0.6009186556E-01      0.1147780503E+00
          0               104           2           457  455     1       0.1142604719E+00     457  455    1       0.2750875463E-01      0.5945470405E-01      0.5977225577E-01      0.1142604719E+00
          0               105           2           457  455     1       0.1137452292E+00     457  455    1       0.2738498442E-01      0.5913919356E-01      0.5945470405E-01      0.1137452292E+00
          0               106           2           457  455     1       0.1132323115E+00     457  455    1       0.2726177025E-01      0.5882570763E-01      0.5913919356E-01      0.1132323115E+00
          0               107           2           457  455     1       0.1127217084E+00     457  455    1       0.2713910962E-01      0.5851422973E-01      0.5882570763E-01      0.1127217084E+00
          0               108           2           457  455     1       0.1122134093E+00     457  455    1       0.2701700005E-01      0.5820474351E-01      0.5851422973E-01      0.1122134093E+00
          0               109           2           457  455     1       0.1117074040E+00     457  455    1       0.2689543907E-01      0.5789723276E-01      0.5820474351E-01      0.1117074040E+00
          0               110           2           457  455     1       0.1112036819E+00     457  455    1       0.2677442423E-01      0.5759168146E-01      0.5789723276E-01      0.1112036819E+00
                                                   Max.-Head-Change                        Max.-Flux-Residual
  Residual-Control   Outer-Iter.   Inner-Iter.     Column Row Layer    Max.-Head-Change    Column Row Layer    Max.-Flux-Residual            L2-New               L2-Old           Solver-Max-Delh
          0               111           2           457  455     1       0.1107022329E+00     457  455    1       0.2665395307E-01      0.5728807370E-01      0.5759168146E-01      0.1107022329E+00
          0               112           2           457  455     1       0.1102030466E+00     457  455    1       0.2653402317E-01      0.5698639376E-01      0.5728807370E-01      0.1102030466E+00
          0               113           2           457  455     1       0.1097061128E+00     457  455    1       0.2641463210E-01      0.5668662624E-01      0.5698639376E-01      0.1097061128E+00
          0               114           2           457  455     1       0.1092114213E+00     457  455    1       0.2629577744E-01      0.5638875575E-01      0.5668662624E-01      0.1092114213E+00
          0               115           2           457  455     1       0.1087189621E+00     457  455    1       0.2617745679E-01      0.5609276700E-01      0.5638875575E-01      0.1087189621E+00
          0               116           2           457  455     1       0.1082287249E+00     457  455    1       0.2605966777E-01      0.5579864485E-01      0.5609276700E-01      0.1082287249E+00
          0               117           2           457  455     1       0.1077406998E+00     457  455    1       0.2594240798E-01      0.5550637433E-01      0.5579864485E-01      0.1077406998E+00
          0               118           2           457  455     1       0.1072548767E+00     457  455    1       0.2582567506E-01      0.5521594057E-01      0.5550637433E-01      0.1072548767E+00
          0               119           2           457  455     1       0.1067712458E+00     457  455    1       0.2570946664E-01      0.5492732888E-01      0.5521594057E-01      0.1067712458E+00
          0               120           2           457  455     1       0.1062897971E+00     457  455    1       0.2559378039E-01      0.5464052470E-01      0.5492732888E-01      0.1062897971E+00
                                                   Max.-Head-Change                        Max.-Flux-Residual
  Residual-Control   Outer-Iter.   Inner-Iter.     Column Row Layer    Max.-Head-Change    Column Row Layer    Max.-Flux-Residual            L2-New               L2-Old           Solver-Max-Delh
          0               121           2           457  455     1       0.1058105208E+00     457  455    1       0.2547861395E-01      0.5435551361E-01      0.5464052470E-01      0.1058105208E+00
          0               122           2           457  455     1       0.1053334070E+00     457  455    1       0.2536396499E-01      0.5407228131E-01      0.5435551361E-01      0.1053334070E+00
          0               123           2           457  455     1       0.1048584460E+00     457  455    1       0.2524983121E-01      0.5379081367E-01      0.5407228131E-01      0.1048584460E+00
          0               124           2           457  455     1       0.1043856280E+00     457  455    1       0.2513621029E-01      0.5351109668E-01      0.5379081367E-01      0.1043856280E+00
          0               125           2           457  455     1       0.1039149434E+00     457  455    1       0.2502309993E-01      0.5323605062E-01      0.5351109668E-01      0.1039149434E+00
          0               126           2           457  455     1       0.1034463825E+00     457  455    1       0.2491049785E-01      0.5299584303E-01      0.5323605062E-01      0.1034463825E+00
          0               127           2           457  455     1       0.1029799357E+00     457  455    1       0.2479840177E-01      0.5275672252E-01      0.5299584303E-01      0.1029799357E+00
          0               128           2           457  455     1       0.1025155935E+00     457  455    1       0.2468680941E-01      0.5251868037E-01      0.5275672252E-01      0.1025155935E+00
          0               129           2           457  455     1       0.1020533464E+00     457  455    1       0.2457571853E-01      0.5228171158E-01      0.5251868037E-01      0.1020533464E+00
          0               130           2           457  455     1       0.1015931849E+00     457  455    1       0.2446512688E-01      0.5204581133E-01      0.5228171158E-01      0.1015931849E+00
                                                   Max.-Head-Change                        Max.-Flux-Residual
  Residual-Control   Outer-Iter.   Inner-Iter.     Column Row Layer    Max.-Head-Change    Column Row Layer    Max.-Flux-Residual            L2-New               L2-Old           Solver-Max-Delh
          0               131           2           457  455     1       0.1011350996E+00     457  455    1       0.2435503221E-01      0.5181097481E-01      0.5204581133E-01      0.1011350996E+00
          0               132           2           457  455     1       0.1006790811E+00     457  455    1       0.2424543230E-01      0.5157719721E-01      0.5181097481E-01      0.1006790811E+00
          0               133           2           457  455     1       0.1002251201E+00     457  455    1       0.2413632494E-01      0.5134447378E-01      0.5157719721E-01      0.1002251201E+00
          0               134           2           457  455     1       0.9977320723E-01     457  455    1       0.2402770791E-01      0.5111279976E-01      0.5134447378E-01      0.9977320723E-01

    ------------------------------------------------
       NWT REQUIRED          134 OUTER ITERATIONS 
       AND A TOTAL OF        270 INNER ITERATIONS.
    ------------------------------------------------

 NO OUTPUT CONTROL FOR STRESS PERIOD    1   TIME STEP    2

 SOLVING FOR HEAD 
                                                   Max.-Head-Change                        Max.-Flux-Residual
  Residual-Control   Outer-Iter.   Inner-Iter.     Column Row Layer    Max.-Head-Change    Column Row Layer    Max.-Flux-Residual            L2-New               L2-Old           Solver-Max-Delh
          0                 1           3            77   92     1      -0.6765777073E+01     473  501    1      -0.1120964880E+05      0.8612611311E+05      0.5111279976E-01     -0.6765777073E+01
          0                 2           3           196   85     1       0.1113235130E+01     459  440    1       0.2974742548E+04      0.1055433179E+05      0.8612611311E+05      0.1113235130E+01
          0                 3           2           326  120     1       0.3099522065E+00     204   84    1       0.4727212173E+03      0.1183354456E+04      0.1055433179E+05      0.3099522065E+00
          0                 4           2           457  455     1       0.1457453365E+00     204   84    1       0.2361919229E+02      0.5929225273E+02      0.1183354456E+04      0.1457453365E+00
          0                 5           2           457  455     1       0.1447615471E+00     204   84    1       0.1180560518E+01      0.3046118608E+01      0.5929225273E+02      0.1447615471E+00
          0                 6           2           457  455     1       0.1437843365E+00     230   71    1      -0.8036997216E-01      0.2034145889E+00      0.3046118608E+01      0.1437843365E+00
          0                 7           2           457  455     1       0.1428137229E+00     457  455    1       0.3443468471E-01      0.7683589525E-01      0.2034145889E+00      0.1428137229E+00
          0                 8           2           457  455     1       0.1418496648E+00     457  455    1       0.3420266293E-01      0.7292638755E-01      0.7683589525E-01      0.1418496648E+00
          0                 9           2           457  455     1       0.1408921182E+00     457  455    1       0.3397220685E-01      0.7228942047E-01      0.7292638755E-01      0.1408921182E+00
          0                10           2           457  455     1       0.1399410393E+00     457  455    1       0.3374330237E-01      0.7179148758E-01      0.7228942047E-01      0.1399410393E+00
                                                   Max.-Head-Change                        Max.-Flux-Residual
  Residual-Control   Outer-Iter.   Inner-Iter.     Column Row Layer    Max.-Head-Change    Column Row Layer    Max.-Flux-Residual            L2-New               L2-Old           Solver-Max-Delh
          0                11           2           457  455     1       0.1389963843E+00     457  455    1       0.3351593847E-01      0.7130557805E-01      0.7179148758E-01      0.1389963843E+00
          0                12           2           457  455     1       0.1380581097E+00     457  455    1       0.3329010467E-01      0.7082364280E-01      0.7130557805E-01      0.1380581097E+00
          0                13           2           457  455     1       0.1371261725E+00     457  455    1       0.3306579070E-01      0.7034502167E-01      0.7082364280E-01      0.1371261725E+00
          0                14           2           457  455     1       0.1362005298E+00     457  455    1       0.3284298634E-01      0.6986963821E-01      0.7034502167E-01      0.1362005298E+00
          0                15           2           457  455     1       0.1352811389E+00     457  455    1       0.3262168146E-01      0.6939746596E-01      0.6986963821E-01      0.1352811389E+00
          0                16           2           457  455     1       0.1343679578E+00     457  455    1       0.3240186600E-01      0.6892848283E-01      0.6939746596E-01      0.1343679578E+00
          0                17           2           457  455     1       0.1334609442E+00     457  455    1       0.3218352994E-01      0.6846266729E-01      0.6892848283E-01      0.1334609442E+00
          0                18           2           457  455     1       0.1325600566E+00     457  455    1       0.3196666337E-01      0.6799999797E-01      0.6846266729E-01      0.1325600566E+00
          0                19           2           457  455     1       0.1316652536E+00     457  455    1       0.3175125641E-01      0.6754045363E-01      0.6799999797E-01      0.1316652536E+00
          0                20           2           457  455     1       0.1307764939E+00     457  455    1       0.3153729927E-01      0.6708401319E-01      0.6754045363E-01      0.1307764939E+00
                                                   Max.-Head-Change                        Max.-Flux-Residual
  Residual-Control   Outer-Iter.   Inner-Iter.     Column Row Layer    Max.-Head-Change    Column Row Layer    Max.-Flux-Residual            L2-New               L2-Old           Solver-Max-Delh
          0                21           2           457  455     1       0.1298937368E+00     457  455    1       0.3132478220E-01      0.6663065571E-01      0.6708401319E-01      0.1298937368E+00
          0                22           2           457  455     1       0.1290169416E+00     457  455    1       0.3111369553E-01      0.6618036039E-01      0.6663065571E-01      0.1290169416E+00
          0                23           2           457  455     1       0.1281460680E+00     457  455    1       0.3090402967E-01      0.6573310656E-01      0.6618036039E-01      0.1281460680E+00
          0                24           2           457  455     1       0.1272810760E+00     457  455    1       0.3069577507E-01      0.6528887372E-01      0.6573310656E-01      0.1272810760E+00
          0                25           2           457  455     1       0.1264219259E+00     457  455    1       0.3048892226E-01      0.6484764147E-01      0.6528887372E-01      0.1264219259E+00
          0                26           2           457  455     1       0.1255685781E+00     457  455    1       0.3028346181E-01      0.6440938956E-01      0.6484764147E-01      0.1255685781E+00
          0                27           2           457  455     1       0.1247209934E+00     457  455    1       0.3007938438E-01      0.6397409789E-01      0.6440938956E-01      0.1247209934E+00
          0                28           2           457  455     1       0.1238791328E+00     457  455    1       0.2987668068E-01      0.6354174649E-01      0.6397409789E-01      0.1238791328E+00
          0                29           2           457  455     1       0.1230429577E+00     457  455    1       0.2967534148E-01      0.6311231551E-01      0.6354174649E-01      0.1230429577E+00
          0                30           2           457  455     1       0.1222124297E+00     457  455    1       0.2947535762E-01      0.6268578524E-01      0.6311231551E-01      0.1222124297E+00
                                                   Max.-Head-Change                        Max.-Flux-Residual
  Residual-Control   Outer-Iter.   Inner-Iter.     Column Row Layer    Max.-Head-Change    Column Row Layer    Max.-Flux-Residual            L2-New               L2-Old           Solver-Max-Delh
          0                31           2           457  455     1       0.1213875104E+00     457  455    1       0.2927671999E-01      0.6226213612E-01      0.6268578524E-01      0.1213875104E+00
          0                32           2           457  455     1       0.1205681621E+00     457  455    1       0.2907941956E-01      0.6184134870E-01      0.6226213612E-01      0.1205681621E+00
          0                33           2           457  455     1       0.1197543470E+00     457  455    1       0.2888344733E-01      0.6142340367E-01      0.6184134870E-01      0.1197543470E+00
          0                34           2           457  455     1       0.1189460278E+00     457  455    1       0.2868879439E-01      0.6100828185E-01      0.6142340367E-01      0.1189460278E+00
          0                35           2           457  455     1       0.1181431673E+00     457  455    1       0.2849545187E-01      0.6059596419E-01      0.6100828185E-01      0.1181431673E+00
          0                36           2           457  455     1       0.1173457286E+00     457  455    1       0.2830341098E-01      0.6018643176E-01      0.6059596419E-01      0.1173457286E+00
          0                37           2           457  455     1       0.1165536750E+00     457  455    1       0.2811266296E-01      0.5977966577E-01      0.6018643176E-01      0.1165536750E+00
          0                38           2           457  455     1       0.1157669702E+00     457  455    1       0.2792319913E-01      0.5937564755E-01      0.5977966577E-01      0.1157669702E+00
          0                39           2           457  455     1       0.1149855780E+00     457  455    1       0.2773501087E-01      0.5897435855E-01      0.5937564755E-01      0.1149855780E+00
          0                40           2           457  455     1       0.1142094624E+00     457  455    1       0.2754808960E-01      0.5857578036E-01      0.5897435855E-01      0.1142094624E+00
                                                   Max.-Head-Change                        Max.-Flux-Residual
  Residual-Control   Outer-Iter.   Inner-Iter.     Column Row Layer    Max.-Head-Change    Column Row Layer    Max.-Flux-Residual            L2-New               L2-Old           Solver-Max-Delh
          0                41           2           457  455     1       0.1134385879E+00     457  455    1       0.2736242680E-01      0.5817989468E-01      0.5857578036E-01      0.1134385879E+00
          0                42           2           457  455     1       0.1126729190E+00     457  455    1       0.2717801404E-01      0.5778668335E-01      0.5817989468E-01      0.1126729190E+00
          0                43           2           457  455     1       0.1119124205E+00     457  455    1       0.2699484290E-01      0.5739612830E-01      0.5778668335E-01      0.1119124205E+00
          0                44           2           457  455     1       0.1111570575E+00     457  455    1       0.2681290504E-01      0.5700821162E-01      0.5739612830E-01      0.1111570575E+00
          0                45           2           457  455     1       0.1104067952E+00     457  455    1       0.2663219218E-01      0.5662291550E-01      0.5700821162E-01      0.1104067952E+00
          0                46           2           457  455     1       0.1096615991E+00     457  455    1       0.2645269608E-01      0.5624022225E-01      0.5662291550E-01      0.1096615991E+00
          0                47           2           457  455     1       0.1089214351E+00     457  455    1       0.2627440857E-01      0.5586011430E-01      0.5624022225E-01      0.1089214351E+00
          0                48           2           457  455     1       0.1081862692E+00     457  455    1       0.2609732153E-01      0.5548257421E-01      0.5586011430E-01      0.1081862692E+00
          0                49           2           457  455     1       0.1074560674E+00     457  455    1       0.2592142688E-01      0.5510758464E-01      0.5548257421E-01      0.1074560674E+00
          0                50           2           457  455     1       0.1067307964E+00     457  455    1       0.2574671662E-01      0.5473512837E-01      0.5510758464E-01      0.1067307964E+00
                                                   Max.-Head-Change                        Max.-Flux-Residual
  Residual-Control   Outer-Iter.   Inner-Iter.     Column Row Layer    Max.-Head-Change    Column Row Layer    Max.-Flux-Residual            L2-New               L2-Old           Solver-Max-Delh
          0                51           2           457  455     1       0.1060104227E+00     457  455    1       0.2557318278E-01      0.5436518832E-01      0.5473512837E-01      0.1060104227E+00
          0                52           2           457  455     1       0.1052949133E+00     457  455    1       0.2540081746E-01      0.5399774749E-01      0.5436518832E-01      0.1052949133E+00
          0                53           2           457  455     1       0.1045842352E+00     457  455    1       0.2522961281E-01      0.5363278901E-01      0.5399774749E-01      0.1045842352E+00
          0                54           2           457  455     1       0.1038783559E+00     457  455    1       0.2505956102E-01      0.5327029614E-01      0.5363278901E-01      0.1038783559E+00
          0                55           2           457  455     1       0.1031772430E+00     457  455    1       0.2489065435E-01      0.5291025223E-01      0.5327029614E-01      0.1031772430E+00
          0                56           2           457  455     1       0.1024808641E+00     457  455    1       0.2472288510E-01      0.5255264074E-01      0.5291025223E-01      0.1024808641E+00
          0                57           2           457  455     1       0.1017891873E+00     457  455    1       0.2455624561E-01      0.5219744526E-01      0.5255264074E-01      0.1017891873E+00
          0                58           2           457  455     1       0.1011021809E+00     457  455    1       0.2439072831E-01      0.5184464948E-01      0.5219744526E-01      0.1011021809E+00
          0                59           2           457  455     1       0.1004198132E+00     457  455    1       0.2422632565E-01      0.5149423720E-01      0.5184464948E-01      0.1004198132E+00
          0                60           2           457  455     1       0.9974205289E-01     457  455    1       0.2406303012E-01      0.5114619233E-01      0.5149423720E-01      0.9974205289E-01

    ------------------------------------------------
       NWT REQUIRED           60 OUTER ITERATIONS 
       AND A TOTAL OF        122 INNER ITERATIONS.
    ------------------------------------------------

 NO OUTPUT CONTROL FOR STRESS PERIOD    1   TIME STEP    3

 SOLVING FOR HEAD 
                                                   Max.-Head-Change                        Max.-Flux-Residual
  Residual-Control   Outer-Iter.   Inner-Iter.     Column Row Layer    Max.-Head-Change    Column Row Layer    Max.-Flux-Residual            L2-New               L2-Old           Solver-Max-Delh
          0                 1           3            77   92     1      -0.6636225657E+01     472  501    1      -0.7980061355E+04      0.6393482120E+05      0.5114619233E-01     -0.6636225657E+01
          0                 2           3            77   92     1       0.5442824247E+00     455  421    1      -0.7970701111E+03      0.6652581530E+04      0.6393482120E+05      0.5442824247E+00
          0                 3           2           457  455     1       0.1294741984E+00     204   83    1      -0.1334404995E+03      0.3918021225E+03      0.6652581530E+04      0.1294741984E+00
          0                 4           2           457  455     1       0.1283130239E+00     204   83    1      -0.6548453983E+01      0.2054630593E+02      0.3918021225E+03      0.1283130239E+00
          0                 5           2           457  455     1       0.1271610888E+00     196   86    1       0.8550126543E+00      0.1481397435E+01      0.2054630593E+02      0.1271610888E+00
          0                 6           2           457  455     1       0.1260194419E+00     196   86    1       0.1471168036E+00      0.2062915164E+00      0.1481397435E+01      0.1260194419E+00
          0                 7           2           457  455     1       0.1248880455E+00     457  455    1       0.3018227974E-01      0.7228614811E-01      0.2062915164E+00      0.1248880455E+00
          0                 8           2           457  455     1       0.1237668100E+00     457  455    1       0.2991163408E-01      0.6385852120E-01      0.7228614811E-01      0.1237668100E+00
          0                 9           2           457  455     1       0.1226556448E+00     457  455    1       0.2964341628E-01      0.6302495548E-01      0.6385852120E-01      0.1226556448E+00
          0                10           2           457  455     1       0.1215544594E+00     457  455    1       0.2937760213E-01      0.6244984858E-01      0.6302495548E-01      0.1215544594E+00
                                                   Max.-Head-Change                        Max.-Flux-Residual
  Residual-Control   Outer-Iter.   Inner-Iter.     Column Row Layer    Max.-Head-Change    Column Row Layer    Max.-Flux-Residual            L2-New               L2-Old           Solver-Max-Delh
          0                11           2           457  455     1       0.1204631639E+00     457  455    1       0.2911416972E-01      0.6188788287E-01      0.6244984858E-01      0.1204631639E+00
          0                12           2           457  455     1       0.1193816697E+00     457  455    1       0.2885309764E-01      0.6133122376E-01      0.6188788287E-01      0.1193816697E+00
          0                13           2           457  455     1       0.1183098886E+00     457  455    1       0.2859436479E-01      0.6077957834E-01      0.6133122376E-01      0.1183098886E+00
          0                14           2           457  455     1       0.1172477332E+00     457  455    1       0.2833795022E-01      0.6023289367E-01      0.6077957834E-01      0.1172477332E+00
          0                15           2           457  455     1       0.1161951171E+00     457  455    1       0.2808383321E-01      0.5969112493E-01      0.6023289367E-01      0.1161951171E+00
          0                16           2           457  455     1       0.1151519546E+00     457  455    1       0.2783199319E-01      0.5915422792E-01      0.5969112493E-01      0.1151519546E+00
          0                17           2           457  455     1       0.1141181606E+00     457  455    1       0.2758240979E-01      0.5862215885E-01      0.5915422792E-01      0.1141181606E+00
          0                18           2           457  455     1       0.1130936510E+00     457  455    1       0.2733506282E-01      0.5809487433E-01      0.5862215885E-01      0.1130936510E+00
          0                19           2           457  455     1       0.1120783423E+00     457  455    1       0.2708993228E-01      0.5757233135E-01      0.5809487433E-01      0.1120783423E+00
          0                20           2           457  455     1       0.1110721518E+00     457  455    1       0.2684699833E-01      0.5705448731E-01      0.5757233135E-01      0.1110721518E+00
                                                   Max.-Head-Change                        Max.-Flux-Residual
  Residual-Control   Outer-Iter.   Inner-Iter.     Column Row Layer    Max.-Head-Change    Column Row Layer    Max.-Flux-Residual            L2-New               L2-Old           Solver-Max-Delh
          0                21           2           457  455     1       0.1100749977E+00     457  455    1       0.2660624133E-01      0.5654129996E-01      0.5705448731E-01      0.1100749977E+00
          0                22           2           457  455     1       0.1090867986E+00     457  455    1       0.2636764178E-01      0.5603272745E-01      0.5654129996E-01      0.1090867986E+00
          0                23           2           457  455     1       0.1081074741E+00     457  455    1       0.2613118038E-01      0.5552872830E-01      0.5603272745E-01      0.1081074741E+00
          0                24           2           457  455     1       0.1071369445E+00     457  455    1       0.2589683801E-01      0.5502926140E-01      0.5552872830E-01      0.1071369445E+00
          0                25           2           457  455     1       0.1061751308E+00     457  455    1       0.2566459570E-01      0.5453428600E-01      0.5502926140E-01      0.1061751308E+00
          0                26           2           457  455     1       0.1052219544E+00     457  455    1       0.2543443466E-01      0.5404376175E-01      0.5453428600E-01      0.1052219544E+00
          0                27           2           457  455     1       0.1042773380E+00     457  455    1       0.2520633626E-01      0.5355764862E-01      0.5404376175E-01      0.1042773380E+00
          0                28           2           457  455     1       0.1033412046E+00     457  455    1       0.2498028205E-01      0.5307590696E-01      0.5355764862E-01      0.1033412046E+00
          0                29           2           457  455     1       0.1024134778E+00     457  455    1       0.2475625372E-01      0.5259849749E-01      0.5307590696E-01      0.1024134778E+00
          0                30           2           457  455     1       0.1014940822E+00     457  455    1       0.2453423315E-01      0.5212538125E-01      0.5259849749E-01      0.1014940822E+00
                                                   Max.-Head-Change                        Max.-Flux-Residual
  Residual-Control   Outer-Iter.   Inner-Iter.     Column Row Layer    Max.-Head-Change    Column Row Layer    Max.-Flux-Residual            L2-New               L2-Old           Solver-Max-Delh
          0                31           2           457  455     1       0.1005829430E+00     457  455    1       0.2431420237E-01      0.5165651966E-01      0.5212538125E-01      0.1005829430E+00
          0                32           2           457  455     1       0.9967998583E-01     457  455    1       0.2409614358E-01      0.5119187446E-01      0.5165651966E-01      0.9967998583E-01

    ------------------------------------------------
       NWT REQUIRED           32 OUTER ITERATIONS 
       AND A TOTAL OF         66 INNER ITERATIONS.
    ------------------------------------------------

 NO OUTPUT CONTROL FOR STRESS PERIOD    1   TIME STEP    4

 SOLVING FOR HEAD 
                                                   Max.-Head-Change                        Max.-Flux-Residual
  Residual-Control   Outer-Iter.   Inner-Iter.     Column Row Layer    Max.-Head-Change    Column Row Layer    Max.-Flux-Residual            L2-New               L2-Old           Solver-Max-Delh
          0                 1           3            77   92     1      -0.6508811197E+01     472  501    1      -0.6377814706E+04      0.5139281837E+05      0.5119187446E-01     -0.6508811197E+01
          0                 2           3           196   86     1       0.9117582976E+00     196   86    1       0.1539577959E+04      0.5421378550E+04      0.5139281837E+05      0.9117582976E+00
          0                 3           2           326  120     1       0.2942598576E+00     196   86    1      -0.1539577982E+03      0.4160425382E+03      0.5421378550E+04      0.2942598576E+00
          0                 4           2           457  455     1       0.1191448256E+00     196   86    1      -0.7697886012E+01      0.2099346011E+02      0.4160425382E+03      0.1191448256E+00
          0                 5           2           457  455     1       0.1178111870E+00     196   86    1      -0.3848171268E+00      0.1106625833E+01      0.2099346011E+02      0.1178111870E+00
          0                 6           2           457  455     1       0.1164924280E+00     327  120    1       0.3314921007E-01      0.9191208126E-01      0.1106625833E+01      0.1164924280E+00
          0                 7           2           457  455     1       0.1151884321E+00     457  455    1       0.2789861376E-01      0.6013100764E-01      0.9191208126E-01      0.1151884321E+00
          0                 8           2           457  455     1       0.1138990366E+00     457  455    1       0.2758660284E-01      0.5869444867E-01      0.6013100764E-01      0.1138990366E+00
          0                 9           2           457  455     1       0.1126240784E+00     457  455    1       0.2727808156E-01      0.5796804965E-01      0.5869444867E-01      0.1126240784E+00
          0                10           2           457  455     1       0.1113633958E+00     457  455    1       0.2697300902E-01      0.5730976354E-01      0.5796804965E-01      0.1113633958E+00
                                                   Max.-Head-Change                        Max.-Flux-Residual
  Residual-Control   Outer-Iter.   Inner-Iter.     Column Row Layer    Max.-Head-Change    Column Row Layer    Max.-Flux-Residual            L2-New               L2-Old           Solver-Max-Delh
          0                11           2           457  455     1       0.1101168290E+00     457  455    1       0.2667134640E-01      0.5666552855E-01      0.5730976354E-01      0.1101168290E+00
          0                12           2           457  455     1       0.1088842197E+00     457  455    1       0.2637305557E-01      0.5602924688E-01      0.5666552855E-01      0.1088842197E+00
          0                13           2           457  455     1       0.1076654116E+00     457  455    1       0.2607809887E-01      0.5540021342E-01      0.5602924688E-01      0.1076654116E+00
          0                14           2           457  455     1       0.1064602501E+00     457  455    1       0.2578643907E-01      0.5477828408E-01      0.5540021342E-01      0.1064602501E+00
          0                15           2           457  455     1       0.1052685824E+00     457  455    1       0.2549803937E-01      0.5416336961E-01      0.5477828408E-01      0.1052685824E+00
          0                16           2           457  455     1       0.1040902572E+00     457  455    1       0.2521286338E-01      0.5355538698E-01      0.5416336961E-01      0.1040902572E+00
          0                17           2           457  455     1       0.1029251250E+00     457  455    1       0.2493087508E-01      0.5295425490E-01      0.5355538698E-01      0.1029251250E+00
          0                18           2           457  455     1       0.1017730382E+00     457  455    1       0.2465203890E-01      0.5235989338E-01      0.5295425490E-01      0.1017730382E+00
          0                19           2           457  455     1       0.1006338505E+00     457  455    1       0.2437631963E-01      0.5177222368E-01      0.5235989338E-01      0.1006338505E+00
          0                20           2           457  455     1       0.9950741747E-01     457  455    1       0.2410368247E-01      0.5119116819E-01      0.5177222368E-01      0.9950741747E-01

    ------------------------------------------------
       NWT REQUIRED           20 OUTER ITERATIONS 
       AND A TOTAL OF         42 INNER ITERATIONS.
    ------------------------------------------------

 NO OUTPUT CONTROL FOR STRESS PERIOD    1   TIME STEP    5

 SOLVING FOR HEAD 
                                                   Max.-Head-Change                        Max.-Flux-Residual
  Residual-Control   Outer-Iter.   Inner-Iter.     Column Row Layer    Max.-Head-Change    Column Row Layer    Max.-Flux-Residual            L2-New               L2-Old           Solver-Max-Delh
          0                 1           3            77   92     1      -0.6383584613E+01     472  501    1      -0.5223082900E+04      0.4329558108E+05      0.5119116819E-01     -0.6383584613E+01
          0                 2           3            77   92     1       0.5243204534E+00     455  423    1       0.1395945954E+04      0.4675936171E+04      0.4329558108E+05      0.5243204534E+00
          0                 3           2           307  104     1       0.1261768751E+00     455  423    1       0.6988646918E+02      0.2360819512E+03      0.4675936171E+04      0.1261768751E+00
          0                 4           2           307  104     1       0.1187404812E+00     455  423    1       0.3493865892E+01      0.1182889226E+02      0.2360819512E+03      0.1187404812E+00
          0                 5           2           457  455     1       0.1116578096E+00     455  423    1       0.1746239588E+00      0.6142211281E+00      0.1182889226E+02      0.1116578096E+00
          0                 6           2           457  455     1       0.1101617820E+00     457  455    1       0.2673725217E-01      0.7047974486E-01      0.6142211281E+00      0.1101617820E+00
          0                 7           2           457  455     1       0.1086858003E+00     457  455    1       0.2637926424E-01      0.5630668328E-01      0.7047974486E-01      0.1086858003E+00
          0                 8           2           457  455     1       0.1072295982E+00     457  455    1       0.2602607799E-01      0.5529259789E-01      0.5630668328E-01      0.1072295982E+00
          0                 9           2           457  455     1       0.1057929111E+00     457  455    1       0.2567762013E-01      0.5454074147E-01      0.5529259789E-01      0.1057929111E+00
          0                10           2           457  455     1       0.1043754774E+00     457  455    1       0.2533382584E-01      0.5380656967E-01      0.5454074147E-01      0.1043754774E+00
                                                   Max.-Head-Change                        Max.-Flux-Residual
  Residual-Control   Outer-Iter.   Inner-Iter.     Column Row Layer    Max.-Head-Change    Column Row Layer    Max.-Flux-Residual            L2-New               L2-Old           Solver-Max-Delh
          0                11           2           457  455     1       0.1029770390E+00     457  455    1       0.2499463250E-01      0.5308263972E-01      0.5380656967E-01      0.1029770390E+00
          0                12           2           457  455     1       0.1015973411E+00     457  455    1       0.2465997853E-01      0.5236856757E-01      0.5308263972E-01      0.1015973411E+00
          0                13           2           457  455     1       0.1002361326E+00     457  455    1       0.2432980324E-01      0.5166419718E-01      0.5236856757E-01      0.1002361326E+00
          0                14           2           457  455     1       0.9889316564E-01     457  455    1       0.2400404674E-01      0.5096938395E-01      0.5166419718E-01      0.9889316564E-01

    ------------------------------------------------
       NWT REQUIRED           14 OUTER ITERATIONS 
       AND A TOTAL OF         30 INNER ITERATIONS.
    ------------------------------------------------

 NO OUTPUT CONTROL FOR STRESS PERIOD    1   TIME STEP    6

 SOLVING FOR HEAD 
                                                   Max.-Head-Change                        Max.-Flux-Residual
  Residual-Control   Outer-Iter.   Inner-Iter.     Column Row Layer    Max.-Head-Change    Column Row Layer    Max.-Flux-Residual            L2-New               L2-Old           Solver-Max-Delh
          0                 1           3            77   92     1      -0.6260583284E+01     472  501    1      -0.4377497007E+04      0.3766976754E+05      0.5096938395E-01     -0.6260583284E+01
          0                 2           3            77   92     1       0.5145864548E+00     475  516    1       0.5186442258E+03      0.3850339694E+04      0.3766976754E+05      0.5145864548E+00
          0                 3           2           457  455     1       0.1101089394E+00     475  516    1       0.2584642016E+02      0.1946706124E+03      0.3850339694E+04      0.1101089394E+00
          0                 4           2           457  455     1       0.1083932076E+00     475  516    1       0.1291849339E+01      0.9732404735E+01      0.1946706124E+03      0.1083932076E+00
          0                 5           2           457  455     1       0.1067032283E+00     475  516    1       0.6456606695E-01      0.4895451981E+00      0.9732404735E+01      0.1067032283E+00
          0                 6           2           457  455     1       0.1050395556E+00     457  455    1       0.2554704906E-01      0.5944534527E-01      0.4895451981E+00      0.1050395556E+00
          0                 7           2           457  455     1       0.1034018240E+00     457  455    1       0.2514895537E-01      0.5341151376E-01      0.5944534527E-01      0.1034018240E+00
          0                 8           2           457  455     1       0.1017896316E+00     457  455    1       0.2475707193E-01      0.5256136092E-01      0.5341151376E-01      0.1017896316E+00
          0                 9           2           457  455     1       0.1002025804E+00     457  455    1       0.2437129427E-01      0.5173831338E-01      0.5256136092E-01      0.1002025804E+00
          0                10           2           457  455     1       0.9864027820E-01     457  455    1       0.2399152599E-01      0.5092840015E-01      0.5173831338E-01      0.9864027820E-01

    ------------------------------------------------
       NWT REQUIRED           10 OUTER ITERATIONS 
       AND A TOTAL OF         22 INNER ITERATIONS.
    ------------------------------------------------

 NO OUTPUT CONTROL FOR STRESS PERIOD    1   TIME STEP    7

 SOLVING FOR HEAD 
                                                   Max.-Head-Change                        Max.-Flux-Residual
  Residual-Control   Outer-Iter.   Inner-Iter.     Column Row Layer    Max.-Head-Change    Column Row Layer    Max.-Flux-Residual            L2-New               L2-Old           Solver-Max-Delh
          0                 1           3            77   92     1      -0.6139840991E+01     472  501    1      -0.3742724357E+04      0.3349451670E+05      0.5092840015E-01     -0.6139840991E+01
          0                 2           3            77   92     1       0.5050214530E+00     455  422    1       0.9609487741E+03      0.3603130732E+04      0.3349451670E+05      0.5050214530E+00
          0                 3           2           457  455     1       0.1068835024E+00     455  422    1       0.4808880743E+02      0.1803826213E+03      0.3603130732E+04      0.1068835024E+00
          0                 4           2           457  455     1       0.1049847962E+00      83  103    1       0.1485364760E+02      0.1737812656E+02      0.1803826213E+03      0.1049847962E+00
          0                 5           2           457  455     1       0.1031188709E+00      83  103    1       0.7419159494E+00      0.8918374005E+00      0.1737812656E+02      0.1031188709E+00
          0                 6           2           457  455     1       0.1012860693E+00      83  103    1       0.3707148414E-01      0.7712880642E-01      0.8918374005E+00      0.1012860693E+00
          0                 7           2           457  455     1       0.9948584564E-01     457  455    1       0.2424626877E-01      0.5244575059E-01      0.7712880642E-01      0.9948584564E-01

    ------------------------------------------------
       NWT REQUIRED            7 OUTER ITERATIONS 
       AND A TOTAL OF         16 INNER ITERATIONS.
    ------------------------------------------------

 NO OUTPUT CONTROL FOR STRESS PERIOD    1   TIME STEP    8

 SOLVING FOR HEAD 
                                                   Max.-Head-Change                        Max.-Flux-Residual
  Residual-Control   Outer-Iter.   Inner-Iter.     Column Row Layer    Max.-Head-Change    Column Row Layer    Max.-Flux-Residual            L2-New               L2-Old           Solver-Max-Delh
          0                 1           3            77   92     1      -0.6021381526E+01     472  501    1      -0.3254165019E+04      0.3027358865E+05      0.5244575059E-01     -0.6021381526E+01
          0                 2           3            77   92     1       0.4956271804E+00      83  103    1       0.3492769981E+03      0.3056148021E+04      0.3027358865E+05      0.4956271804E+00
          0                 3           2           457  455     1       0.1054233537E+00      83  103    1       0.1741154650E+02      0.1527601332E+03      0.3056148021E+04      0.1054233537E+00
          0                 4           2           457  455     1       0.1033217167E+00      83  103    1       0.8702730120E+00      0.7636632683E+01      0.1527601332E+03      0.1033217167E+00
          0                 5           2           457  455     1       0.1012610465E+00      83  103    1       0.4349591711E-01      0.3853159715E+00      0.7636632683E+01      0.1012610465E+00
          0                 6           2           457  455     1       0.9924143639E-01     457  455    1       0.2423578077E-01      0.5487129784E-01      0.3853159715E+00      0.9924143639E-01

    ------------------------------------------------
       NWT REQUIRED            6 OUTER ITERATIONS 
       AND A TOTAL OF         14 INNER ITERATIONS.
    ------------------------------------------------

 NO OUTPUT CONTROL FOR STRESS PERIOD    1   TIME STEP    9

 SOLVING FOR HEAD 
                                                   Max.-Head-Change                        Max.-Flux-Residual
  Residual-Control   Outer-Iter.   Inner-Iter.     Column Row Layer    Max.-Head-Change    Column Row Layer    Max.-Flux-Residual            L2-New               L2-Old           Solver-Max-Delh
          0                 1           3            77   92     1      -0.5905224208E+01     472  501    1      -0.2869595521E+04      0.2768953215E+05      0.5487129784E-01     -0.5905224208E+01
          0                 2           3            77   92     1       0.4864056782E+00     329  195    1       0.3062260304E+03      0.2792998933E+04      0.2768953215E+05      0.4864056782E+00
          0                 3           2           457  455     1       0.1031930939E+00     329  195    1      -0.2511294361E+02      0.1416414302E+03      0.2792998933E+04      0.1031930939E+00
          0                 4           2           457  455     1       0.1009130209E+00     329  195    1      -0.1255730612E+01      0.7083005286E+01      0.1416414302E+03      0.1009130209E+00
          0                 5           2           457  455     1       0.9868242165E-01     329  195    1      -0.6277501921E-01      0.3618768845E+00      0.7083005286E+01      0.9868242165E-01

    ------------------------------------------------
       NWT REQUIRED            5 OUTER ITERATIONS 
       AND A TOTAL OF         12 INNER ITERATIONS.
    ------------------------------------------------

 OUTPUT CONTROL FOR STRESS PERIOD    1   TIME STEP   10
    SAVE HEAD FOR ALL LAYERS

 HEAD WILL BE SAVED ON UNIT   51 AT END OF TIME STEP   10, STRESS PERIOD    1
1
  VOLUMETRIC BUDGET FOR ENTIRE MODEL AT END OF TIME STEP   10, STRESS PERIOD   1
  ------------------------------------------------------------------------------

     CUMULATIVE VOLUMES      L**3       RATES FOR THIS TIME STEP      L**3/T
     ------------------                 ------------------------

           IN:                                      IN:
           ---                                      ---
             STORAGE =    40584960.0000               STORAGE =      723986.5625
       CONSTANT HEAD =     1265538.3750         CONSTANT HEAD =       44552.0664
               WELLS =           0.0000                 WELLS =           0.0000
              DRAINS =           0.0000                DRAINS =           0.0000
                  ET =           0.0000                    ET =           0.0000
            RECHARGE =     6981795.5000              RECHARGE =      229664.3594

            TOTAL IN =    48832296.0000              TOTAL IN =      998203.0000

          OUT:                                     OUT:
          ----                                     ----
             STORAGE =    34565344.0000               STORAGE =      546659.8125
       CONSTANT HEAD =           0.0000         CONSTANT HEAD =           0.0000
               WELLS =     8314849.0000                 WELLS =      273514.7500
              DRAINS =     3468247.7500                DRAINS =      104292.2188
                  ET =     2483849.2500                    ET =       73736.0078
            RECHARGE =           0.0000              RECHARGE =           0.0000

           TOTAL OUT =    48832288.0000             TOTAL OUT =      998202.7500

            IN - OUT =           8.0000              IN - OUT =           0.2500

 PERCENT DISCREPANCY =           0.00     PERCENT DISCREPANCY =           0.00






         TIME SUMMARY AT END OF TIME STEP   10 IN STRESS PERIOD    1
                    SECONDS     MINUTES      HOURS       DAYS        YEARS
                    -----------------------------------------------------------
   TIME STEP LENGTH 2.62656E+05  4377.6      72.960      3.0400     8.32307E-03
 STRESS PERIOD TIME 2.62656E+06  43776.      729.60      30.400     8.32307E-02
         TOTAL TIME 2.62656E+06  43776.      729.60      30.400     8.32307E-02
1
1
                            STRESS PERIOD NO.    2, LENGTH =   30.40000    
                            -----------------------------------------------

                              NUMBER OF TIME STEPS =    10

                               MULTIPLIER FOR DELT =     1.000

                            INITIAL TIME STEP SIZE =   3.040000    

 WELL NO.  LAYER   ROW   COL   STRESS RATE         
 --------------------------------------------------
      1      1     69    225      -86.40    
      2      1     71    224      -6048.    
      3      1     74    220      -6134.    
      4      1     73    220      -5789.    
      5      1     71    223      -6221.    
      6      1     71    223      -7344.    
      7      1     72    223      -6394.    
      8      1     92    173      -6653.    
      9      1     94    174      -5875.    
     10      1     93    175      -5875.    
     11      1    203    328      -5875.    
     12      1    438    460      -2793.    
     13      1    436    461      -2793.    
     14      1    410    454      -2793.    
     15      1    433    460      -2793.    
     16      1    431    462      -2793.    
     17      1    417    459      -2793.    
     18      1    418    458      -2793.    
     19      1    414    455      -2793.    
     20      1    443    464      -2793.    
     21      1    379    425      -2793.    
     22      1    362    405      -2793.    
     23      1    361    405      -2793.    
     24      1    362    406      -2793.    
     25      1    363    408      -2793.    
     26      1    364    410      -2793.    
     27      1    369    418      -2793.    
     28      1    367    417      -2793.    
     29      1    365    415      -2793.    
     30      1    402    447      -2793.    
     31      1    400    446      -2793.    
     32      1    392    444      -2793.    
     33      1    391    441      -2793.    
     34      1    403    448      -2793.    
     35      1    405    447      -2793.    
     36      1    362    410      -2793.    
     37      1    362    411      -2793.    
     38      1    363    412      -2793.    
     39      1    375    421      -2793.    
     40      1    383    430      -2793.    
     41      1    397    445      -2793.    
     42      1    360    403      -2793.    
     43      1    350    401      -2793.    
     44      1    346    393      -3604.    
     45      1    333    387      -3604.    
     46      1    328    384      -3604.    
     47      1    326    383      -3604.    
     48      1    323    378      -3604.    
     49      1    321    378      -3604.    
     50      1    322    376      -3604.    
     51      1    316    374      -3604.    
     52      1    311    371      -3604.    
     53      1    307    369      -3604.    
     54      1    305    368      -3604.    
     55      1    303    368      -3604.    
     56      1    300    369      -3604.    
     57      1    293    364      -3604.    
     58      1    292    362      -3604.    
     59      1    278    350      -3604.    
     60      1    274    351      -3604.    
     61      1    273    350      -3604.    
     62      1    271    350      -3604.    
     63      1    267    348      -3604.    
     64      1    263    348      -3604.    
     65      1    263    348      -3604.    
     66      1    248    347      -3604.    
     67      1    243    342      -3604.    
     68      1    242    339      -3604.    
     69      1    238    341      -3604.    
     70      1    233    340      -3604.    
     71      1    232    340      -3604.    
     72      1    229    341      -3604.    
     73      1    227    341      -3604.    
     74      1    219    342      -3604.    
     75      1    219    336      -3604.    
     76      1    199    329      -3604.    
     77      1    191    332      -4829.    
     78      1    190    332      -4829.    
     79      1    130    310      -4829.    
     80      1    123    305      -4829.    
     81      1    104    289      -4829.    
     82      1     96    287      -4290.    
     83      1     95    284      -4290.    
     84      1     95    280      -4290.    
     85      1     93    276      -4290.    
     86      1     94    275      -4290.    
     87      1     90    277      -4290.    
     88      1     90    273      -4290.    
     89      1     86    271      -4290.    
     90      1     85    270      -4290.    
     91      1     84    265      -4290.    
     92      1     85    265      -4290.    
     93      1     84    264      -4290.    
     94      1     79    263      -4290.    
     95      1     79    263      -4290.    
     96      1     76    262      -4290.    
     97      1     73    257      -4290.    
     98      1     74    255      -4290.    
     99      1     71    255      -4290.    
    100      1     66    253      -4290.    
    101      1     68    252      -4290.    
    102      1     69    250      -4290.    
    103      1     65    248      -4290.    
    104      1     68    248      -4290.    
    105      1     69    247      -4290.    
    106      1     73    247      -4290.    
    107      1     64    246      -4290.    
    108      1     69    245      -4290.    
    109      1     72    245      -4290.    
    110      1     69    241      -4290.    
    111      1     73    238      -4290.    
    112      1     70    238      -4290.    
    113      1     76    263      -4290.    
    114      1     66    232      -2310.    
    115      1     69    229      -2310.    
    116      1     71    228      -2310.    
    117      1     69    227      -2310.    
    118      1     72    219      -2310.    
    119      1     72    218      -2310.    
    120      1     72    218      -2310.    
    121      1     73    217      -2310.    
    122      1     77    219      -2310.    
    123      1     78    219      -2310.    
    124      1     83    213      -2310.    
    125      1     77    213      -2310.    
    126      1     81    211      -2310.    
    127      1     81    210      -2310.    
    128      1     81    210      -2310.    
    129      1     82    208      -2310.    
    130      1     80    205      -2310.    
    131      1     86    202      -2310.    
    132      1     84    200      -2310.    
    133      1     89    200      -2310.    
    134      1     89    199      -2310.    
    135      1     88    199      -2310.    
    136      1     86    199      -2310.    
    137      1     85    199      -2310.    
    138      1     82    197      -2310.    
    139      1     86    197      -2310.    
    140      1     88    198      -2310.    
    141      1     90    192      -2310.    
    142      1     89    191      -2310.    
    143      1     84    192      -2310.    
    144      1     91    189      -2310.    
    145      1     92    185      -2310.    
    146      1     87    183      -2310.    
    147      1     92    182      -2310.    
    148      1     90    182      -2310.    
    149      1     88    179      -2310.    
    150      1     89    176      -2310.    
    151      1     92    172      -2310.    
    152      1     93    164      -2310.    
    153      1     94    162      -2310.    
    154      1    103    156      -2310.    
    155      1    103    156      -2310.    
    156      1     96    154      -2310.    
    157      1     97    153      -2310.    
    158      1    122    139      -2310.    
    159      1     92     77      -2310.    
    160      1     94     77      -2310.    
    161      1     94     73      -2310.    
    162      1     97    152      -2310.    
    163      1    118    337      -666.7    
    164      1    133    319      -2678.    
    165      1    131    320      -3951.    
    166      1    133    321      -2956.    
    167      1    161    329      -2141.    
    168      1    178    330      -551.0    
    169      1    163    330      -1122.    
    170      1    131    320      -2473.    
    171      1    129    315      -3937.    
    172      1    162    329      -1959.    
    173      1    131    311      -826.1    
    174      1    221    340      -1994.    
    175      1    220    340      -1034.    
    176      1    221    340      -667.7    
    177      1    137    322      -2082.    
    178      1    137    321      -1407.    
    179      1    185    329      -2012.    
    180      1    183    329      -1473.    
    181      1    175    329      -585.3    
    182      1     79    243      -1490.    
    183      1     77    245      -2414.    
    184      1    199    329      -1617.    
    185      1    198    330      -2514.    
    186      1    140    328      -972.1    
    187      1    143    327      -863.6    
    188      1    139    327      -1331.    

    188 WELLS

 REUSING NON-PARAMETER DRAINS FROM LAST STRESS PERIOD

   1061 DRAINS

 REUSING SURF FROM LAST STRESS PERIOD

 REUSING EVTR FROM LAST STRESS PERIOD

 REUSING EXDP FROM LAST STRESS PERIOD



                           RECHARGE
 READING ON UNIT   19 WITH FORMAT: (510E15.6)          

 SOLVING FOR HEAD 
                                                   Max.-Head-Change                        Max.-Flux-Residual
  Residual-Control   Outer-Iter.   Inner-Iter.     Column Row Layer    Max.-Head-Change    Column Row Layer    Max.-Flux-Residual            L2-New               L2-Old           Solver-Max-Delh
          0                 1           3            77   92     1      -0.1478965695E+02     289  104    1      -0.5254047983E+04      0.3847211280E+05      0.3618768845E+00     -0.1478965695E+02
          0                 2           3            77   92     1       0.1126766457E+01     201   86    1       0.1297570502E+04      0.4060360263E+04      0.3847211280E+05      0.1126766457E+01
          0                 3           2           457  455     1       0.1114785930E+00     202   86    1       0.7862665054E+02      0.2275786450E+03      0.4060360263E+04      0.1114785930E+00
          0                 4           2           457  455     1       0.1084826981E+00     202   86    1       0.3928902732E+01      0.1137668534E+02      0.2275786450E+03      0.1084826981E+00
          0                 5           2           457  455     1       0.1055651455E+00     202   86    1       0.1963623632E+00      0.5722937098E+00      0.1137668534E+02      0.1055651455E+00
          0                 6           2           457  455     1       0.1027259633E+00     457  455    1       0.2525039573E-01      0.6102353459E-01      0.5722937098E+00      0.1027259633E+00
          0                 7           2           457  455     1       0.9996314365E-01     457  455    1       0.2457150025E-01      0.5215263489E-01      0.6102353459E-01      0.9996314365E-01

    ------------------------------------------------
       NWT REQUIRED            7 OUTER ITERATIONS 
       AND A TOTAL OF         16 INNER ITERATIONS.
    ------------------------------------------------

 NO OUTPUT CONTROL FOR STRESS PERIOD    2   TIME STEP    1

 SOLVING FOR HEAD 
                                                   Max.-Head-Change                        Max.-Flux-Residual
  Residual-Control   Outer-Iter.   Inner-Iter.     Column Row Layer    Max.-Head-Change    Column Row Layer    Max.-Flux-Residual            L2-New               L2-Old           Solver-Max-Delh
          0                 1           3            77   92     1      -0.1459426721E+02     332  190    1      -0.2973899650E+04      0.2907576937E+05      0.5215263489E-01     -0.1459426721E+02
          0                 2           2            77   92     1       0.1112010544E+01     202   86    1       0.6366809795E+03      0.3101172539E+04      0.2907576937E+05      0.1112010544E+01
          0                 3           2           457  455     1       0.1076477685E+00     329  196    1      -0.3287165689E+02      0.1582255593E+03      0.3101172539E+04      0.1076477685E+00
          0                 4           2           457  455     1       0.1042442049E+00     329  196    1      -0.1643606098E+01      0.7918438176E+01      0.1582255593E+03      0.1042442049E+00
          0                 5           2           457  455     1       0.1009461809E+00     324  120    1       0.9323490308E-01      0.4101021498E+00      0.7918438176E+01      0.1009461809E+00
          0                 6           2           457  455     1       0.9775240955E-01     457  455    1       0.2413523365E-01      0.5623629115E-01      0.4101021498E+00      0.9775240955E-01

    ------------------------------------------------
       NWT REQUIRED            6 OUTER ITERATIONS 
       AND A TOTAL OF         13 INNER ITERATIONS.
    ------------------------------------------------

 NO OUTPUT CONTROL FOR STRESS PERIOD    2   TIME STEP    2

 SOLVING FOR HEAD 
                                                   Max.-Head-Change                        Max.-Flux-Residual
  Residual-Control   Outer-Iter.   Inner-Iter.     Column Row Layer    Max.-Head-Change    Column Row Layer    Max.-Flux-Residual            L2-New               L2-Old           Solver-Max-Delh
          0                 1           3            77   92     1      -0.1440026614E+02     393  346    1      -0.2455498752E+04      0.2630846050E+05      0.5623629115E-01     -0.1440026614E+02
          0                 2           2            77   92     1       0.1097373081E+01     202   88    1       0.3243075407E+03      0.2654287940E+04      0.2630846050E+05      0.1097373081E+01
          0                 3           2           457  455     1       0.1013464557E+00     202   88    1       0.1618150272E+02      0.1337656730E+03      0.2654287940E+04      0.1013464557E+00
          0                 4           2           457  455     1       0.9766611214E-01     202   88    1       0.8088286297E+00      0.6690279013E+01      0.1337656730E+03      0.9766611214E-01

    ------------------------------------------------
       NWT REQUIRED            4 OUTER ITERATIONS 
       AND A TOTAL OF          9 INNER ITERATIONS.
    ------------------------------------------------

 NO OUTPUT CONTROL FOR STRESS PERIOD    2   TIME STEP    3

 SOLVING FOR HEAD 
                                                   Max.-Head-Change                        Max.-Flux-Residual
  Residual-Control   Outer-Iter.   Inner-Iter.     Column Row Layer    Max.-Head-Change    Column Row Layer    Max.-Flux-Residual            L2-New               L2-Old           Solver-Max-Delh
          0                 1           3            77   92     1      -0.1420793982E+02      77   94    1      -0.2263796141E+04      0.2447039279E+05      0.6690279013E+01     -0.1420793982E+02
          0                 2           2            77   92     1       0.1082872508E+01     202   87    1       0.2679510289E+03      0.2484391366E+04      0.2447039279E+05      0.1082872508E+01
          0                 3           2           457  455     1       0.9807621303E-01     169   93    1       0.1888597551E+02      0.1267119720E+03      0.2484391366E+04      0.9807621303E-01

    ------------------------------------------------
       NWT REQUIRED            3 OUTER ITERATIONS 
       AND A TOTAL OF          7 INNER ITERATIONS.
    ------------------------------------------------

 NO OUTPUT CONTROL FOR STRESS PERIOD    2   TIME STEP    4

 SOLVING FOR HEAD 
                                                   Max.-Head-Change                        Max.-Flux-Residual
  Residual-Control   Outer-Iter.   Inner-Iter.     Column Row Layer    Max.-Head-Change    Column Row Layer    Max.-Flux-Residual            L2-New               L2-Old           Solver-Max-Delh
          0                 1           3            77   92     1      -0.1401752018E+02      77   94    1      -0.2261959433E+04      0.2301730574E+05      0.1267119720E+03     -0.1401752018E+02
          0                 2           2            77   92     1       0.1068523372E+01      77   94    1       0.2260807217E+03      0.2309498314E+04      0.2301730574E+05      0.1068523372E+01
          0                 3           2           457  455     1       0.9578698049E-01     169   93    1      -0.1797141492E+02      0.1170268557E+03      0.2309498314E+04      0.9578698049E-01

    ------------------------------------------------
       NWT REQUIRED            3 OUTER ITERATIONS 
       AND A TOTAL OF          7 INNER ITERATIONS.
    ------------------------------------------------

 NO OUTPUT CONTROL FOR STRESS PERIOD    2   TIME STEP    5

 SOLVING FOR HEAD 
                                                   Max.-Head-Change                        Max.-Flux-Residual
  Residual-Control   Outer-Iter.   Inner-Iter.     Column Row Layer    Max.-Head-Change    Column Row Layer    Max.-Flux-Residual            L2-New               L2-Old           Solver-Max-Delh
          0                 1           3            77   92     1      -0.1382929516E+02      77   94    1      -0.2260127781E+04      0.2179377665E+05      0.1170268557E+03     -0.1382929516E+02
          0                 2           2            77   92     1       0.1054344623E+01      77   94    1       0.2258977166E+03      0.2194580207E+04      0.2179377665E+05      0.1054344623E+01
          0                 3           2           457  455     1       0.9125807835E-01     169   92    1      -0.1759637664E+02      0.1110141055E+03      0.2194580207E+04      0.9125807835E-01

    ------------------------------------------------
       NWT REQUIRED            3 OUTER ITERATIONS 
       AND A TOTAL OF          7 INNER ITERATIONS.
    ------------------------------------------------

 NO OUTPUT CONTROL FOR STRESS PERIOD    2   TIME STEP    6

 SOLVING FOR HEAD 
                                                   Max.-Head-Change                        Max.-Flux-Residual
  Residual-Control   Outer-Iter.   Inner-Iter.     Column Row Layer    Max.-Head-Change    Column Row Layer    Max.-Flux-Residual            L2-New               L2-Old           Solver-Max-Delh
          0                 1           3            77   92     1      -0.1364349455E+02      77   94    1      -0.2258300932E+04      0.2073245300E+05      0.1110141055E+03     -0.1364349455E+02
          0                 2           2            77   92     1       0.1040351009E+01      77   94    1       0.2257151917E+03      0.2075234746E+04      0.2073245300E+05      0.1040351009E+01
          0                 3           2           457  455     1       0.8500837580E-01      77   94    1       0.1128490018E+02      0.1037379450E+03      0.2075234746E+04      0.8500837580E-01

    ------------------------------------------------
       NWT REQUIRED            3 OUTER ITERATIONS 
       AND A TOTAL OF          7 INNER ITERATIONS.
    ------------------------------------------------

 NO OUTPUT CONTROL FOR STRESS PERIOD    2   TIME STEP    7

 SOLVING FOR HEAD 
                                                   Max.-Head-Change                        Max.-Flux-Residual
  Residual-Control   Outer-Iter.   Inner-Iter.     Column Row Layer    Max.-Head-Change    Column Row Layer    Max.-Flux-Residual            L2-New               L2-Old           Solver-Max-Delh
          0                 1           3            77   92     1      -0.1346032906E+02      77   94    1      -0.2256479216E+04      0.1979717328E+05      0.1037379450E+03     -0.1346032906E+02
          0                 2           2            77   92     1       0.1026556021E+01      77   94    1       0.2255331800E+03      0.1985835493E+04      0.1979717328E+05      0.1026556021E+01
          0                 3           2           457  455     1       0.7756804843E-01     197   83    1       0.1645191368E+02      0.1017698466E+03      0.1985835493E+04      0.7756804843E-01

    ------------------------------------------------
       NWT REQUIRED            3 OUTER ITERATIONS 
       AND A TOTAL OF          7 INNER ITERATIONS.
    ------------------------------------------------

 NO OUTPUT CONTROL FOR STRESS PERIOD    2   TIME STEP    8

 SOLVING FOR HEAD 
                                                   Max.-Head-Change                        Max.-Flux-Residual
  Residual-Control   Outer-Iter.   Inner-Iter.     Column Row Layer    Max.-Head-Change    Column Row Layer    Max.-Flux-Residual            L2-New               L2-Old           Solver-Max-Delh
          0                 1           3            77   92     1      -0.1327999125E+02      77   94    1      -0.2254662189E+04      0.1896708112E+05      0.1017698466E+03     -0.1327999125E+02
          0                 2           2            77   92     1       0.2952159932E+01      77   92    1       0.8337211291E+03      0.2106849086E+04      0.1896708112E+05      0.2952159932E+01
          0                 3           2           306  103     1       0.4276791806E+00      77   92    1       0.7766449243E+02      0.1240451196E+03      0.2106849086E+04      0.4276791806E+00
          0                 4           2           306  103     1       0.3589374566E+00      77   92    1       0.4460891914E+01      0.6578717967E+01      0.1240451196E+03      0.3589374566E+00
          0                 5           2           306  103     1       0.3009055994E+00      77   92    1       0.2249916016E+00      0.3318389257E+00      0.6578717967E+01      0.3009055994E+00
          0                 6           2           306  103     1       0.2524689153E+00     457  455    1       0.1451385698E-01      0.3507473518E-01      0.3318389257E+00      0.2524689153E+00
          0                 7           2           306  103     1       0.2120046094E+00     457  455    1       0.1359113776E-01      0.2894953290E-01      0.3507473518E-01      0.2120046094E+00
          0                 8           2           306  103     1       0.1781489470E+00     457  455    1       0.1272708091E-01      0.2706043818E-01      0.2894953290E-01      0.1781489470E+00
          0                 9           2           306  103     1       0.1497861432E+00     457  455    1       0.1191795470E-01      0.2530929723E-01      0.2706043818E-01      0.1497861432E+00
          0                10           2           306  103     1       0.1259995004E+00     457  455    1       0.1116026687E-01      0.2367522674E-01      0.2530929723E-01      0.1259995004E+00
                                                   Max.-Head-Change                        Max.-Flux-Residual
  Residual-Control   Outer-Iter.   Inner-Iter.     Column Row Layer    Max.-Head-Change    Column Row Layer    Max.-Flux-Residual            L2-New               L2-Old           Solver-Max-Delh
          0                11           2           306  103     1       0.1060328383E+00     457  455    1       0.1045074753E-01      0.2214954090E-01      0.2367522674E-01      0.1060328383E+00
          0                12           2           306  103     1       0.8926018835E-01     457  455    1       0.9786334662E-02      0.2072436993E-01      0.2214954090E-01      0.8926018835E-01

    ------------------------------------------------
       NWT REQUIRED           12 OUTER ITERATIONS 
       AND A TOTAL OF         25 INNER ITERATIONS.
    ------------------------------------------------

 NO OUTPUT CONTROL FOR STRESS PERIOD    2   TIME STEP    9

 WELLS WITH REDUCED PUMPING FOR STRESS PERIOD     2 TIME STEP     9
   LAY   ROW   COL         APPL.Q          ACT.Q        GW-HEAD       CELL-BOT
     1    92    77  -0.230952E+04  -0.200834E+04  -0.743502E+02  -0.930000E+02


 SOLVING FOR HEAD 
                                                   Max.-Head-Change                        Max.-Flux-Residual
  Residual-Control   Outer-Iter.   Inner-Iter.     Column Row Layer    Max.-Head-Change    Column Row Layer    Max.-Flux-Residual            L2-New               L2-Old           Solver-Max-Delh
          0                 1           3            77   92     1      -0.6203952516E+01      77   94    1      -0.2252849859E+04      0.1819765313E+05      0.2072436993E-01     -0.6203952516E+01
          0                 2           2            77   92     1       0.1025309207E+01      77   92    1       0.3014802972E+03      0.1850449372E+04      0.1819765313E+05      0.1025309207E+01
          0                 3           2           306  103     1       0.6637516012E-01      77   92    1       0.1570017823E+02      0.9260970587E+02      0.1850449372E+04      0.6637516012E-01

    ------------------------------------------------
       NWT REQUIRED            3 OUTER ITERATIONS 
       AND A TOTAL OF          7 INNER ITERATIONS.
    ------------------------------------------------

 OUTPUT CONTROL FOR STRESS PERIOD    2   TIME STEP   10
    SAVE HEAD FOR ALL LAYERS

 WELLS WITH REDUCED PUMPING FOR STRESS PERIOD     2 TIME STEP    10
   LAY   ROW   COL         APPL.Q          ACT.Q        GW-HEAD       CELL-BOT
     1    92    77  -0.230952E+04  -0.136544E+04  -0.794751E+02  -0.930000E+02


 HEAD WILL BE SAVED ON UNIT   51 AT END OF TIME STEP   10, STRESS PERIOD    2
1
  VOLUMETRIC BUDGET FOR ENTIRE MODEL AT END OF TIME STEP   10, STRESS PERIOD   2
  ------------------------------------------------------------------------------

     CUMULATIVE VOLUMES      L**3       RATES FOR THIS TIME STEP      L**3/T
     ------------------                 ------------------------

           IN:                                      IN:
           ---                                      ---
             STORAGE =    65253788.0000               STORAGE =      708695.6250
       CONSTANT HEAD =     2658238.5000         CONSTANT HEAD =       46553.8125
               WELLS =           0.0000                 WELLS =           0.0000
              DRAINS =           0.0000                DRAINS =           0.0000
                  ET =           0.0000                    ET =           0.0000
            RECHARGE =    11811694.0000              RECHARGE =      158878.2031

            TOTAL IN =    79723720.0000              TOTAL IN =      914127.6250

          OUT:                                     OUT:
          ----                                     ----
             STORAGE =    44361464.0000               STORAGE =      223591.7031
       CONSTANT HEAD =           0.0000         CONSTANT HEAD =           0.0000
               WELLS =    24224430.0000                 WELLS =      522522.0000
              DRAINS =     6577436.0000                DRAINS =      102196.5234
                  ET =     4558123.5000                    ET =       65694.4766
            RECHARGE =           0.0000              RECHARGE =           0.0000

           TOTAL OUT =    79721448.0000             TOTAL OUT =      914004.6875

            IN - OUT =        2272.0000              IN - OUT =         122.9375

 PERCENT DISCREPANCY =           0.00     PERCENT DISCREPANCY =           0.01






         TIME SUMMARY AT END OF TIME STEP   10 IN STRESS PERIOD    2
                    SECONDS     MINUTES      HOURS       DAYS        YEARS
                    -----------------------------------------------------------
   TIME STEP LENGTH 2.62656E+05  4377.6      72.960      3.0400     8.32307E-03
 STRESS PERIOD TIME 2.62656E+06  43776.      729.60      30.400     8.32307E-02
         TOTAL TIME 5.25312E+06  87552.      1459.2      60.800     0.16646    
1
1
                            STRESS PERIOD NO.    3, LENGTH =   30.40000    
                            -----------------------------------------------

                              NUMBER OF TIME STEPS =    10

                               MULTIPLIER FOR DELT =     1.000

                            INITIAL TIME STEP SIZE =   3.040000    

 WELL NO.  LAYER   ROW   COL   STRESS RATE         
 --------------------------------------------------
      1      1     69    225      -172.8    
      2      1     71    224      -6048.    
      3      1     74    220      -6134.    
      4      1     73    220      -5789.    
      5      1     71    223      -6221.    
      6      1     71    223      -7344.    
      7      1     72    223      -6394.    
      8      1     92    173      -6653.    
      9      1     94    174      -5875.    
     10      1     93    175      -5875.    
     11      1    203    328      -5875.    
     12      1    438    460      -2561.    
     13      1    436    461      -2561.    
     14      1    410    454      -2561.    
     15      1    433    460      -2561.    
     16      1    431    462      -2561.    
     17      1    417    459      -2561.    
     18      1    418    458      -2561.    
     19      1    414    455      -2561.    
     20      1    443    464      -2561.    
     21      1    379    425      -2561.    
     22      1    362    405      -2561.    
     23      1    361    405      -2561.    
     24      1    362    406      -2561.    
     25      1    363    408      -2561.    
     26      1    364    410      -2561.    
     27      1    369    418      -2561.    
     28      1    367    417      -2561.    
     29      1    365    415      -2561.    
     30      1    402    447      -2561.    
     31      1    400    446      -2561.    
     32      1    392    444      -2561.    
     33      1    391    441      -2561.    
     34      1    403    448      -2561.    
     35      1    405    447      -2561.    
     36      1    362    410      -2561.    
     37      1    362    411      -2561.    
     38      1    363    412      -2561.    
     39      1    375    421      -2561.    
     40      1    383    430      -2561.    
     41      1    397    445      -2561.    
     42      1    360    403      -2561.    
     43      1    350    401      -2561.    
     44      1    346    393      -3648.    
     45      1    333    387      -3648.    
     46      1    328    384      -3648.    
     47      1    326    383      -3648.    
     48      1    323    378      -3648.    
     49      1    321    378      -3648.    
     50      1    322    376      -3648.    
     51      1    316    374      -3648.    
     52      1    311    371      -3648.    
     53      1    307    369      -3648.    
     54      1    305    368      -3648.    
     55      1    303    368      -3648.    
     56      1    300    369      -3648.    
     57      1    293    364      -3648.    
     58      1    292    362      -3648.    
     59      1    278    350      -3648.    
     60      1    274    351      -3648.    
     61      1    273    350      -3648.    
     62      1    271    350      -3648.    
     63      1    267    348      -3648.    
     64      1    263    348      -3648.    
     65      1    263    348      -3648.    
     66      1    248    347      -3648.    
     67      1    243    342      -3648.    
     68      1    242    339      -3648.    
     69      1    238    341      -3648.    
     70      1    233    340      -3648.    
     71      1    232    340      -3648.    
     72      1    229    341      -3648.    
     73      1    227    341      -3648.    
     74      1    219    342      -3648.    
     75      1    219    336      -3648.    
     76      1    199    329      -3648.    
     77      1    191    332      -4532.    
     78      1    190    332      -4532.    
     79      1    130    310      -4532.    
     80      1    123    305      -4532.    
     81      1    104    289      -4532.    
     82      1     96    287      -3788.    
     83      1     95    284      -3788.    
     84      1     95    280      -3788.    
     85      1     93    276      -3788.    
     86      1     94    275      -3788.    
     87      1     90    277      -3788.    
     88      1     90    273      -3788.    
     89      1     86    271      -3788.    
     90      1     85    270      -3788.    
     91      1     84    265      -3788.    
     92      1     85    265      -3788.    
     93      1     84    264      -3788.    
     94      1     79    263      -3788.    
     95      1     79    263      -3788.    
     96      1     76    262      -3788.    
     97      1     73    257      -3788.    
     98      1     74    255      -3788.    
     99      1     71    255      -3788.    
    100      1     66    253      -3788.    
    101      1     68    252      -3788.    
    102      1     69    250      -3788.    
    103      1     65    248      -3788.    
    104      1     68    248      -3788.    
    105      1     69    247      -3788.    
    106      1     73    247      -3788.    
    107      1     64    246      -3788.    
    108      1     69    245      -3788.    
    109      1     72    245      -3788.    
    110      1     69    241      -3788.    
    111      1     73    238      -3788.    
    112      1     70    238      -3788.    
    113      1     76    263      -3788.    
    114      1     66    232      -2343.    
    115      1     69    229      -2343.    
    116      1     71    228      -2343.    
    117      1     69    227      -2343.    
    118      1     72    219      -2343.    
    119      1     72    218      -2343.    
    120      1     72    218      -2343.    
    121      1     73    217      -2343.    
    122      1     77    219      -2343.    
    123      1     78    219      -2343.    
    124      1     83    213      -2343.    
    125      1     77    213      -2343.    
    126      1     81    211      -2343.    
    127      1     81    210      -2343.    
    128      1     81    210      -2343.    
    129      1     82    208      -2343.    
    130      1     80    205      -2343.    
    131      1     86    202      -2343.    
    132      1     84    200      -2343.    
    133      1     89    200      -2343.    
    134      1     89    199      -2343.    
    135      1     88    199      -2343.    
    136      1     86    199      -2343.    
    137      1     85    199      -2343.    
    138      1     82    197      -2343.    
    139      1     86    197      -2343.    
    140      1     88    198      -2343.    
    141      1     90    192      -2343.    
    142      1     89    191      -2343.    
    143      1     84    192      -2343.    
    144      1     91    189      -2343.    
    145      1     92    185      -2343.    
    146      1     87    183      -2343.    
    147      1     92    182      -2343.    
    148      1     90    182      -2343.    
    149      1     88    179      -2343.    
    150      1     89    176      -2343.    
    151      1     92    172      -2343.    
    152      1     93    164      -2343.    
    153      1     94    162      -2343.    
    154      1    103    156      -2343.    
    155      1    103    156      -2343.    
    156      1     96    154      -2343.    
    157      1     97    153      -2343.    
    158      1    122    139      -2343.    
    159      1     92     77      -2343.    
    160      1     94     77      -2343.    
    161      1     94     73      -2343.    
    162      1     97    152      -2343.    
    163      1    118    337      -666.7    
    164      1    133    319      -2678.    
    165      1    131    320      -3951.    
    166      1    133    321      -2956.    
    167      1    161    329      -2141.    
    168      1    178    330      -551.0    
    169      1    163    330      -1122.    
    170      1    131    320      -2473.    
    171      1    129    315      -3937.    
    172      1    162    329      -1959.    
    173      1    131    311      -826.1    
    174      1    221    340      -1994.    
    175      1    220    340      -1034.    
    176      1    221    340      -667.7    
    177      1    137    322      -2082.    
    178      1    137    321      -1407.    
    179      1    185    329      -2012.    
    180      1    183    329      -1473.    
    181      1    175    329      -585.3    
    182      1     79    243      -1490.    
    183      1     77    245      -2414.    
    184      1    199    329      -1617.    
    185      1    198    330      -2514.    
    186      1    140    328      -972.1    
    187      1    143    327      -863.6    
    188      1    139    327      -1331.    

    188 WELLS

 REUSING NON-PARAMETER DRAINS FROM LAST STRESS PERIOD

   1061 DRAINS

 REUSING SURF FROM LAST STRESS PERIOD

 REUSING EVTR FROM LAST STRESS PERIOD

 REUSING EXDP FROM LAST STRESS PERIOD



                           RECHARGE
 READING ON UNIT   19 WITH FORMAT: (510E15.6)          

 SOLVING FOR HEAD 
                                                   Max.-Head-Change                        Max.-Flux-Residual
  Residual-Control   Outer-Iter.   Inner-Iter.     Column Row Layer    Max.-Head-Change    Column Row Layer    Max.-Flux-Residual            L2-New               L2-Old           Solver-Max-Delh
          0                 1           3            77   92     1      -0.2767260612E+01      77   94    1      -0.2284439883E+04      0.1937511268E+05      0.9260970587E+02     -0.2767260612E+01
          0                 2           2            77   92     1       0.2500406045E+00      77   94    1       0.2283263343E+03      0.1934408633E+04      0.1937511268E+05      0.2500406045E+00
          0                 3           2           457  455     1       0.2989976426E-01      77   94    1       0.1141544129E+02      0.9669496693E+02      0.1934408633E+04      0.2989976426E-01

    ------------------------------------------------
       NWT REQUIRED            3 OUTER ITERATIONS 
       AND A TOTAL OF          7 INNER ITERATIONS.
    ------------------------------------------------

 NO OUTPUT CONTROL FOR STRESS PERIOD    3   TIME STEP    1

 WELLS WITH REDUCED PUMPING FOR STRESS PERIOD     3 TIME STEP     1
   LAY   ROW   COL         APPL.Q          ACT.Q        GW-HEAD       CELL-BOT
     1    92    77  -0.234339E+04  -0.102158E+04  -0.819802E+02  -0.930000E+02


 SOLVING FOR HEAD 
                                                   Max.-Head-Change                        Max.-Flux-Residual
  Residual-Control   Outer-Iter.   Inner-Iter.     Column Row Layer    Max.-Head-Change    Column Row Layer    Max.-Flux-Residual            L2-New               L2-Old           Solver-Max-Delh
          0                 1           3            77   92     1      -0.1317151336E+01      77   94    1      -0.2282605258E+04      0.1812394657E+05      0.9669496693E+02     -0.1317151336E+01
          0                 2           2           322  171     1       0.1269403711E+00      77   94    1       0.2281430448E+03      0.1816721586E+04      0.1812394657E+05      0.1269403711E+00
          0                 3           2           457  455     1       0.2585490948E-01      77   94    1       0.1140628199E+02      0.9099678259E+02      0.1816721586E+04      0.2585490948E-01

    ------------------------------------------------
       NWT REQUIRED            3 OUTER ITERATIONS 
       AND A TOTAL OF          7 INNER ITERATIONS.
    ------------------------------------------------

 NO OUTPUT CONTROL FOR STRESS PERIOD    3   TIME STEP    2

 WELLS WITH REDUCED PUMPING FOR STRESS PERIOD     3 TIME STEP     2
   LAY   ROW   COL         APPL.Q          ACT.Q        GW-HEAD       CELL-BOT
     1    92    77  -0.234339E+04  -0.849117E+03  -0.831860E+02  -0.930000E+02


 SOLVING FOR HEAD 
                                                   Max.-Head-Change                        Max.-Flux-Residual
  Residual-Control   Outer-Iter.   Inner-Iter.     Column Row Layer    Max.-Head-Change    Column Row Layer    Max.-Flux-Residual            L2-New               L2-Old           Solver-Max-Delh
          0                 1           3            77   91     1      -0.9440330137E+00      77   94    1      -0.2280772981E+04      0.1740466137E+05      0.9099678259E+02     -0.9440330137E+00
          0                 2           2           251   54     1       0.1180098528E+00     200   88    1       0.2803214253E+03      0.1765040793E+04      0.1740466137E+05      0.1180098528E+00
          0                 3           2           457  455     1       0.2211591479E-01     200   88    1       0.1400001425E+02      0.8853784461E+02      0.1765040793E+04      0.2211591479E-01

    ------------------------------------------------
       NWT REQUIRED            3 OUTER ITERATIONS 
       AND A TOTAL OF          7 INNER ITERATIONS.
    ------------------------------------------------

 NO OUTPUT CONTROL FOR STRESS PERIOD    3   TIME STEP    3

 WELLS WITH REDUCED PUMPING FOR STRESS PERIOD     3 TIME STEP     3
   LAY   ROW   COL         APPL.Q          ACT.Q        GW-HEAD       CELL-BOT
     1    92    77  -0.234339E+04  -0.766203E+03  -0.837810E+02  -0.930000E+02


 SOLVING FOR HEAD 
                                                   Max.-Head-Change                        Max.-Flux-Residual
  Residual-Control   Outer-Iter.   Inner-Iter.     Column Row Layer    Max.-Head-Change    Column Row Layer    Max.-Flux-Residual            L2-New               L2-Old           Solver-Max-Delh
          0                 1           3            77   94     1      -0.9430450479E+00      77   94    1      -0.2278942697E+04      0.1680429781E+05      0.8853784461E+02     -0.9430450479E+00
          0                 2           2           322  171     1       0.1198311597E+00     200   87    1       0.2694849769E+03      0.1704113583E+04      0.1680429781E+05      0.1198311597E+00
          0                 3           2           458  456     1       0.1828394609E-01     404  364    1       0.2314534384E+02      0.8850210175E+02      0.1704113583E+04      0.1828394609E-01

    ------------------------------------------------
       NWT REQUIRED            3 OUTER ITERATIONS 
       AND A TOTAL OF          7 INNER ITERATIONS.
    ------------------------------------------------

 NO OUTPUT CONTROL FOR STRESS PERIOD    3   TIME STEP    4

 WELLS WITH REDUCED PUMPING FOR STRESS PERIOD     3 TIME STEP     4
   LAY   ROW   COL         APPL.Q          ACT.Q        GW-HEAD       CELL-BOT
     1    92    77  -0.234339E+04  -0.724715E+03  -0.840841E+02  -0.930000E+02


 SOLVING FOR HEAD 
                                                   Max.-Head-Change                        Max.-Flux-Residual
  Residual-Control   Outer-Iter.   Inner-Iter.     Column Row Layer    Max.-Head-Change    Column Row Layer    Max.-Flux-Residual            L2-New               L2-Old           Solver-Max-Delh
          0                 1           3            77   94     1      -0.9423287716E+00      77   94    1      -0.2277114510E+04      0.1627432553E+05      0.8850210175E+02     -0.9423287716E+00
          0                 2           2           251   54     1       0.1118399343E+00     404  364    1       0.2537260643E+03      0.1652134658E+04      0.1627432553E+05      0.1118399343E+00
          0                 3           2           457  454     1       0.1652557511E-01     404  364    1      -0.2537561339E+02      0.8611767435E+02      0.1652134658E+04      0.1652557511E-01

    ------------------------------------------------
       NWT REQUIRED            3 OUTER ITERATIONS 
       AND A TOTAL OF          7 INNER ITERATIONS.
    ------------------------------------------------

 NO OUTPUT CONTROL FOR STRESS PERIOD    3   TIME STEP    5

 WELLS WITH REDUCED PUMPING FOR STRESS PERIOD     3 TIME STEP     5
   LAY   ROW   COL         APPL.Q          ACT.Q        GW-HEAD       CELL-BOT
     1    92    77  -0.234339E+04  -0.702808E+03  -0.842458E+02  -0.930000E+02


 SOLVING FOR HEAD 
                                                   Max.-Head-Change                        Max.-Flux-Residual
  Residual-Control   Outer-Iter.   Inner-Iter.     Column Row Layer    Max.-Head-Change    Column Row Layer    Max.-Flux-Residual            L2-New               L2-Old           Solver-Max-Delh
          0                 1           3            77   94     1      -0.9416131689E+00      77   94    1      -0.2275288183E+04      0.1580123217E+05      0.8611767435E+02     -0.9416131689E+00
          0                 2           2           322  171     1       0.1132342398E+00      77   94    1       0.2274120392E+03      0.1582149077E+04      0.1580123217E+05      0.1132342398E+00
          0                 3           2           457  454     1       0.1378179291E-01      77   94    1       0.1136974288E+02      0.7911248076E+02      0.1582149077E+04      0.1378179291E-01

    ------------------------------------------------
       NWT REQUIRED            3 OUTER ITERATIONS 
       AND A TOTAL OF          7 INNER ITERATIONS.
    ------------------------------------------------

 NO OUTPUT CONTROL FOR STRESS PERIOD    3   TIME STEP    6

 WELLS WITH REDUCED PUMPING FOR STRESS PERIOD     3 TIME STEP     6
   LAY   ROW   COL         APPL.Q          ACT.Q        GW-HEAD       CELL-BOT
     1    92    77  -0.234339E+04  -0.690341E+03  -0.843384E+02  -0.930000E+02


 SOLVING FOR HEAD 
                                                   Max.-Head-Change                        Max.-Flux-Residual
  Residual-Control   Outer-Iter.   Inner-Iter.     Column Row Layer    Max.-Head-Change    Column Row Layer    Max.-Flux-Residual            L2-New               L2-Old           Solver-Max-Delh
          0                 1           3            77   94     1      -0.9408983075E+00      77   94    1      -0.2273463872E+04      0.1536942675E+05      0.7911248076E+02     -0.9408983075E+00
          0                 2           2           251   54     1       0.1053669906E+00      77   94    1       0.2272297832E+03      0.1541007051E+04      0.1536942675E+05      0.1053669906E+00
          0                 3           2           457  454     1       0.1150710308E-01      77   94    1       0.1136063246E+02      0.7704073949E+02      0.1541007051E+04      0.1150710308E-01

    ------------------------------------------------
       NWT REQUIRED            3 OUTER ITERATIONS 
       AND A TOTAL OF          7 INNER ITERATIONS.
    ------------------------------------------------

 NO OUTPUT CONTROL FOR STRESS PERIOD    3   TIME STEP    7

 WELLS WITH REDUCED PUMPING FOR STRESS PERIOD     3 TIME STEP     7
   LAY   ROW   COL         APPL.Q          ACT.Q        GW-HEAD       CELL-BOT
     1    92    77  -0.234339E+04  -0.682498E+03  -0.843969E+02  -0.930000E+02


 SOLVING FOR HEAD 
                                                   Max.-Head-Change                        Max.-Flux-Residual
  Residual-Control   Outer-Iter.   Inner-Iter.     Column Row Layer    Max.-Head-Change    Column Row Layer    Max.-Flux-Residual            L2-New               L2-Old           Solver-Max-Delh
          0                 1           3            77   94     1      -0.9401841795E+00      77   94    1      -0.2271641554E+04      0.1497713487E+05      0.7704073949E+02     -0.9401841795E+00
          0                 2           2           322  171     1       0.1071231625E+00      77   94    1       0.2270477262E+03      0.1500087555E+04      0.1497713487E+05      0.1071231625E+00
          0                 3           2           457  454     1       0.9659803442E-02      77   94    1       0.1135153213E+02      0.7504110391E+02      0.1500087555E+04      0.9659803442E-02

    ------------------------------------------------
       NWT REQUIRED            3 OUTER ITERATIONS 
       AND A TOTAL OF          7 INNER ITERATIONS.
    ------------------------------------------------

 NO OUTPUT CONTROL FOR STRESS PERIOD    3   TIME STEP    8

 WELLS WITH REDUCED PUMPING FOR STRESS PERIOD     3 TIME STEP     8
   LAY   ROW   COL         APPL.Q          ACT.Q        GW-HEAD       CELL-BOT
     1    92    77  -0.234339E+04  -0.676959E+03  -0.844383E+02  -0.930000E+02


 SOLVING FOR HEAD 
                                                   Max.-Head-Change                        Max.-Flux-Residual
  Residual-Control   Outer-Iter.   Inner-Iter.     Column Row Layer    Max.-Head-Change    Column Row Layer    Max.-Flux-Residual            L2-New               L2-Old           Solver-Max-Delh
          0                 1           3            77   94     1      -0.9394707033E+00      77   94    1      -0.2269821028E+04      0.1461711125E+05      0.7504110391E+02     -0.9394707033E+00
          0                 2           2           320  171     1       0.9903581178E-01     200   86    1       0.2632966592E+03      0.1494782185E+04      0.1461711125E+05      0.9903581178E-01

    ------------------------------------------------
       NWT REQUIRED            2 OUTER ITERATIONS 
       AND A TOTAL OF          5 INNER ITERATIONS.
    ------------------------------------------------

 NO OUTPUT CONTROL FOR STRESS PERIOD    3   TIME STEP    9

 WELLS WITH REDUCED PUMPING FOR STRESS PERIOD     3 TIME STEP     9
   LAY   ROW   COL         APPL.Q          ACT.Q        GW-HEAD       CELL-BOT
     1    92    77  -0.234339E+04  -0.672574E+03  -0.844712E+02  -0.930000E+02


 SOLVING FOR HEAD 
                                                   Max.-Head-Change                        Max.-Flux-Residual
  Residual-Control   Outer-Iter.   Inner-Iter.     Column Row Layer    Max.-Head-Change    Column Row Layer    Max.-Flux-Residual            L2-New               L2-Old           Solver-Max-Delh
          0                 1           3            77   94     1      -0.9387546061E+00      77   94    1      -0.2267993929E+04      0.1427977966E+05      0.7473096594E+02     -0.9387546061E+00
          0                 2           2           321  171     1       0.1028692124E+00      77   94    1       0.2266833135E+03      0.1433268293E+04      0.1427977966E+05      0.1028692124E+00
          0                 3           2           322  179     1       0.4506085710E+00      77   94    1       0.1133331642E+02      0.7165173175E+02      0.1433268293E+04      0.4506085710E+00
          0                 4           2           322  179     1       0.4406973103E+00      77   94    1       0.5665511159E+00      0.3581875894E+01      0.7165173175E+02      0.4406973103E+00
          0                 5           2           322  179     1       0.4103755079E+00      77   94    1       0.2831625893E-01      0.1792218253E+00      0.3581875894E+01      0.4103755079E+00
          0                 6           2           322  179     1       0.3810560653E+00     322  179    1       0.6682761676E-02      0.1187477016E-01      0.1792218253E+00      0.3810560653E+00
          0                 7           2           322  179     1       0.3537170543E+00     322  179    1       0.6205416091E-02      0.7229191144E-02      0.1187477016E-01      0.3537170543E+00
          0                 8           2           322  179     1       0.3282721213E+00     322  179    1       0.5762240696E-02      0.6671179401E-02      0.7229191144E-02      0.3282721213E+00
          0                 9           2           322  179     1       0.3046045728E+00     322  179    1       0.5349802666E-02      0.6170804807E-02      0.6671179401E-02      0.3046045728E+00
          0                10           2           322  179     1       0.2825984198E+00     322  179    1       0.4965932612E-02      0.5710621861E-02      0.6170804807E-02      0.2825984198E+00
                                                   Max.-Head-Change                        Max.-Flux-Residual
  Residual-Control   Outer-Iter.   Inner-Iter.     Column Row Layer    Max.-Head-Change    Column Row Layer    Max.-Flux-Residual            L2-New               L2-Old           Solver-Max-Delh
          0                11           2           322  179     1       0.2621433755E+00     322  179    1       0.4608755801E-02      0.5287290139E-02      0.5710621861E-02      0.2621433755E+00
          0                12           2           322  179     1       0.2431354769E+00     322  179    1       0.4276528958E-02      0.4897818323E-02      0.5287290139E-02      0.2431354769E+00
          0                13           2           322  179     1       0.2254769677E+00     322  179    1       0.3967610808E-02      0.4539490423E-02      0.4897818323E-02      0.2254769677E+00
          0                14           2           322  179     1       0.2090760515E+00     322  179    1       0.3680454575E-02      0.4209836937E-02      0.4539490423E-02      0.2090760515E+00
          0                15           2           322  179     1       0.1938466217E+00     322  179    1       0.3413603929E-02      0.3906609797E-02      0.4209836937E-02      0.1938466217E+00
          0                16           2           322  179     1       0.1797079873E+00     322  179    1       0.3165689332E-02      0.3628334307E-02      0.3906609797E-02      0.1797079873E+00
          0                17           2           322  179     1       0.1665845999E+00     322  179    1       0.2935424374E-02      0.3378053225E-02      0.3628334307E-02      0.1665845999E+00
          0                18           2           322  179     1       0.1544057842E+00     322  179    1       0.2721602034E-02      0.3148145587E-02      0.3378053225E-02      0.1544057842E+00
          0                19           2           322  179     1       0.1431054742E+00     322  179    1       0.2523090915E-02      0.2937090337E-02      0.3148145587E-02      0.1431054742E+00
          0                20           2           322  179     1       0.1326219567E+00     322  179    1       0.2338831491E-02      0.2743528378E-02      0.2937090337E-02      0.1326219567E+00
                                                   Max.-Head-Change                        Max.-Flux-Residual
  Residual-Control   Outer-Iter.   Inner-Iter.     Column Row Layer    Max.-Head-Change    Column Row Layer    Max.-Flux-Residual            L2-New               L2-Old           Solver-Max-Delh
          0                21           2           322  179     1       0.1228976201E+00     322  179    1       0.2167832389E-02      0.2566211448E-02      0.2743528378E-02      0.1228976201E+00
          0                22           2           322  179     1       0.1138787170E+00     322  179    1       0.2009166716E-02      0.2403988460E-02      0.2566211448E-02      0.1138787170E+00
          0                23           2           322  179     1       0.1055151356E+00     322  179    1       0.1861968524E-02      0.2255794379E-02      0.2403988460E-02      0.1055151356E+00
          0                24           2           322  179     1       0.9776017425E-01     322  179    1       0.1725429379E-02      0.2120638076E-02      0.2255794379E-02      0.9776017425E-01

    ------------------------------------------------
       NWT REQUIRED           24 OUTER ITERATIONS 
       AND A TOTAL OF         49 INNER ITERATIONS.
    ------------------------------------------------

 OUTPUT CONTROL FOR STRESS PERIOD    3   TIME STEP   10
    SAVE HEAD FOR ALL LAYERS

 WELLS WITH REDUCED PUMPING FOR STRESS PERIOD     3 TIME STEP    10
   LAY   ROW   COL         APPL.Q          ACT.Q        GW-HEAD       CELL-BOT
     1    92    77  -0.234339E+04  -0.668838E+03  -0.844992E+02  -0.930000E+02


 HEAD WILL BE SAVED ON UNIT   51 AT END OF TIME STEP   10, STRESS PERIOD    3
1
  VOLUMETRIC BUDGET FOR ENTIRE MODEL AT END OF TIME STEP   10, STRESS PERIOD   3
  ------------------------------------------------------------------------------

     CUMULATIVE VOLUMES      L**3       RATES FOR THIS TIME STEP      L**3/T
     ------------------                 ------------------------

           IN:                                      IN:
           ---                                      ---
             STORAGE =    85297536.0000               STORAGE =      614856.4375
       CONSTANT HEAD =     4088184.0000         CONSTANT HEAD =       47348.7578
               WELLS =           0.0000                 WELLS =           0.0000
              DRAINS =           0.0000                DRAINS =           0.0000
                  ET =           0.0000                    ET =           0.0000
            RECHARGE =    15677634.0000              RECHARGE =      127169.2500

            TOTAL IN =   105063352.0000              TOTAL IN =      789374.4375

          OUT:                                     OUT:
          ----                                     ----
             STORAGE =    49297368.0000               STORAGE =      121956.4375
       CONSTANT HEAD =           0.0000         CONSTANT HEAD =           0.0000
               WELLS =    39508620.0000                 WELLS =      502692.7188
              DRAINS =     9677448.0000                DRAINS =      101204.1406
                  ET =     6485181.5000                    ET =       60828.4141
            RECHARGE =       81860.0000              RECHARGE =        2692.7632

           TOTAL OUT =   105050480.0000             TOTAL OUT =      789374.4375

            IN - OUT =       12872.0000              IN - OUT =           0.0000

 PERCENT DISCREPANCY =           0.01     PERCENT DISCREPANCY =           0.00






         TIME SUMMARY AT END OF TIME STEP   10 IN STRESS PERIOD    3
                    SECONDS     MINUTES      HOURS       DAYS        YEARS
                    -----------------------------------------------------------
   TIME STEP LENGTH 2.62656E+05  4377.6      72.960      3.0400     8.32307E-03
 STRESS PERIOD TIME 2.62656E+06  43776.      729.60      30.400     8.32307E-02
         TOTAL TIME 7.87968E+06 1.31328E+05  2188.8      91.200     0.24969    
1
1
                            STRESS PERIOD NO.    4, LENGTH =   30.40000    
                            -----------------------------------------------

                              NUMBER OF TIME STEPS =    10

                               MULTIPLIER FOR DELT =     1.000

                            INITIAL TIME STEP SIZE =   3.040000    

 WELL NO.  LAYER   ROW   COL   STRESS RATE         
 --------------------------------------------------
      1      1     69    225      -259.2    
      2      1     71    224      -6048.    
      3      1     74    220      -6134.    
      4      1     73    220      -5789.    
      5      1     71    223      -6221.    
      6      1     71    223      -7344.    
      7      1     72    223      -6394.    
      8      1     92    173      -6653.    
      9      1     94    174      -5875.    
     10      1     93    175      -5875.    
     11      1    203    328      -5875.    
     12      1    438    460      -0.000    
     13      1    436    461      -0.000    
     14      1    410    454      -0.000    
     15      1    433    460      -0.000    
     16      1    431    462      -0.000    
     17      1    417    459      -0.000    
     18      1    418    458      -0.000    
     19      1    414    455      -0.000    
     20      1    443    464      -0.000    
     21      1    379    425      -0.000    
     22      1    362    405      -0.000    
     23      1    361    405      -0.000    
     24      1    362    406      -0.000    
     25      1    363    408      -0.000    
     26      1    364    410      -0.000    
     27      1    369    418      -0.000    
     28      1    367    417      -0.000    
     29      1    365    415      -0.000    
     30      1    402    447      -0.000    
     31      1    400    446      -0.000    
     32      1    392    444      -0.000    
     33      1    391    441      -0.000    
     34      1    403    448      -0.000    
     35      1    405    447      -0.000    
     36      1    362    410      -0.000    
     37      1    362    411      -0.000    
     38      1    363    412      -0.000    
     39      1    375    421      -0.000    
     40      1    383    430      -0.000    
     41      1    397    445      -0.000    
     42      1    360    403      -0.000    
     43      1    350    401      -0.000    
     44      1    346    393      -49.88    
     45      1    333    387      -49.88    
     46      1    328    384      -49.88    
     47      1    326    383      -49.88    
     48      1    323    378      -49.88    
     49      1    321    378      -49.88    
     50      1    322    376      -49.88    
     51      1    316    374      -49.88    
     52      1    311    371      -49.88    
     53      1    307    369      -49.88    
     54      1    305    368      -49.88    
     55      1    303    368      -49.88    
     56      1    300    369      -49.88    
     57      1    293    364      -49.88    
     58      1    292    362      -49.88    
     59      1    278    350      -49.88    
     60      1    274    351      -49.88    
     61      1    273    350      -49.88    
     62      1    271    350      -49.88    
     63      1    267    348      -49.88    
     64      1    263    348      -49.88    
     65      1    263    348      -49.88    
     66      1    248    347      -49.88    
     67      1    243    342      -49.88    
     68      1    242    339      -49.88    
     69      1    238    341      -49.88    
     70      1    233    340      -49.88    
     71      1    232    340      -49.88    
     72      1    229    341      -49.88    
     73      1    227    341      -49.88    
     74      1    219    342      -49.88    
     75      1    219    336      -49.88    
     76      1    199    329      -49.88    
     77      1    191    332      -0.000    
     78      1    190    332      -0.000    
     79      1    130    310      -0.000    
     80      1    123    305      -0.000    
     81      1    104    289      -0.000    
     82      1     96    287      -510.6    
     83      1     95    284      -510.6    
     84      1     95    280      -510.6    
     85      1     93    276      -510.6    
     86      1     94    275      -510.6    
     87      1     90    277      -510.6    
     88      1     90    273      -510.6    
     89      1     86    271      -510.6    
     90      1     85    270      -510.6    
     91      1     84    265      -510.6    
     92      1     85    265      -510.6    
     93      1     84    264      -510.6    
     94      1     79    263      -510.6    
     95      1     79    263      -510.6    
     96      1     76    262      -510.6    
     97      1     73    257      -510.6    
     98      1     74    255      -510.6    
     99      1     71    255      -510.6    
    100      1     66    253      -510.6    
    101      1     68    252      -510.6    
    102      1     69    250      -510.6    
    103      1     65    248      -510.6    
    104      1     68    248      -510.6    
    105      1     69    247      -510.6    
    106      1     73    247      -510.6    
    107      1     64    246      -510.6    
    108      1     69    245      -510.6    
    109      1     72    245      -510.6    
    110      1     69    241      -510.6    
    111      1     73    238      -510.6    
    112      1     70    238      -510.6    
    113      1     76    263      -510.6    
    114      1     66    232      -620.9    
    115      1     69    229      -620.9    
    116      1     71    228      -620.9    
    117      1     69    227      -620.9    
    118      1     72    219      -620.9    
    119      1     72    218      -620.9    
    120      1     72    218      -620.9    
    121      1     73    217      -620.9    
    122      1     77    219      -620.9    
    123      1     78    219      -620.9    
    124      1     83    213      -620.9    
    125      1     77    213      -620.9    
    126      1     81    211      -620.9    
    127      1     81    210      -620.9    
    128      1     81    210      -620.9    
    129      1     82    208      -620.9    
    130      1     80    205      -620.9    
    131      1     86    202      -620.9    
    132      1     84    200      -620.9    
    133      1     89    200      -620.9    
    134      1     89    199      -620.9    
    135      1     88    199      -620.9    
    136      1     86    199      -620.9    
    137      1     85    199      -620.9    
    138      1     82    197      -620.9    
    139      1     86    197      -620.9    
    140      1     88    198      -620.9    
    141      1     90    192      -620.9    
    142      1     89    191      -620.9    
    143      1     84    192      -620.9    
    144      1     91    189      -620.9    
    145      1     92    185      -620.9    
    146      1     87    183      -620.9    
    147      1     92    182      -620.9    
    148      1     90    182      -620.9    
    149      1     88    179      -620.9    
    150      1     89    176      -620.9    
    151      1     92    172      -620.9    
    152      1     93    164      -620.9    
    153      1     94    162      -620.9    
    154      1    103    156      -620.9    
    155      1    103    156      -620.9    
    156      1     96    154      -620.9    
    157      1     97    153      -620.9    
    158      1    122    139      -620.9    
    159      1     92     77      -620.9    
    160      1     94     77      -620.9    
    161      1     94     73      -620.9    
    162      1     97    152      -620.9    
    163      1    118    337      -666.7    
    164      1    133    319      -2678.    
    165      1    131    320      -3951.    
    166      1    133    321      -2956.    
    167      1    161    329      -2141.    
    168      1    178    330      -551.0    
    169      1    163    330      -1122.    
    170      1    131    320      -2473.    
    171      1    129    315      -3937.    
    172      1    162    329      -1959.    
    173      1    131    311      -826.1    
    174      1    221    340      -1994.    
    175      1    220    340      -1034.    
    176      1    221    340      -667.7    
    177      1    137    322      -2082.    
    178      1    137    321      -1407.    
    179      1    185    329      -2012.    
    180      1    183    329      -1473.    
    181      1    175    329      -585.3    
    182      1     79    243      -1490.    
    183      1     77    245      -2414.    
    184      1    199    329      -1617.    
    185      1    198    330      -2514.    
    186      1    140    328      -972.1    
    187      1    143    327      -863.6    
    188      1    139    327      -1331.    

    188 WELLS

 REUSING NON-PARAMETER DRAINS FROM LAST STRESS PERIOD

   1061 DRAINS

 REUSING SURF FROM LAST STRESS PERIOD

 REUSING EVTR FROM LAST STRESS PERIOD

 REUSING EXDP FROM LAST STRESS PERIOD



                           RECHARGE
 READING ON UNIT   19 WITH FORMAT: (510E15.6)          

 SOLVING FOR HEAD 
                                                   Max.-Head-Change                        Max.-Flux-Residual
  Residual-Control   Outer-Iter.   Inner-Iter.     Column Row Layer    Max.-Head-Change    Column Row Layer    Max.-Flux-Residual            L2-New               L2-Old           Solver-Max-Delh
          0                 1           3           263   79     1       0.1789407180E+02     348  263    1       0.6992434779E+04      0.3467359326E+05      0.2120638076E-02      0.1789407180E+02
          0                 2           2           263   79     1      -0.1696781786E+01     348  263    1      -0.8049191434E+03      0.3622188266E+04      0.3467359326E+05     -0.1696781786E+01
          0                 3           2           322  179     1       0.1631003537E+00     348  263    1      -0.4046497443E+02      0.1810680268E+03      0.3622188266E+04      0.1631003537E+00
          0                 4           2           322  179     1       0.1237218728E+00     348  263    1      -0.2023396571E+01      0.9076612402E+01      0.1810680268E+03      0.1237218728E+00
          0                 5           2           322  179     1       0.9375693987E-01     309  129    1       0.1066699495E+00      0.4661061147E+00      0.9076612402E+01      0.9375693987E-01

    ------------------------------------------------
       NWT REQUIRED            5 OUTER ITERATIONS 
       AND A TOTAL OF         11 INNER ITERATIONS.
    ------------------------------------------------

 NO OUTPUT CONTROL FOR STRESS PERIOD    4   TIME STEP    1

 WELLS WITH REDUCED PUMPING FOR STRESS PERIOD     4 TIME STEP     1
   LAY   ROW   COL         APPL.Q          ACT.Q        GW-HEAD       CELL-BOT
     1    92    77  -0.620891E+03  -0.275658E+03  -0.818503E+02  -0.930000E+02


 SOLVING FOR HEAD 
                                                   Max.-Head-Change                        Max.-Flux-Residual
  Residual-Control   Outer-Iter.   Inner-Iter.     Column Row Layer    Max.-Head-Change    Column Row Layer    Max.-Flux-Residual            L2-New               L2-Old           Solver-Max-Delh
          0                 1           3           263   79     1       0.6837082601E+01     393  346    1       0.2769658224E+04      0.1708999688E+05      0.4661061147E+00      0.6837082601E+01
          0                 2           2           263   79     1      -0.6236897378E+00     393  346    1      -0.2770330882E+03      0.1716163129E+04      0.1708999688E+05     -0.6236897378E+00
          0                 3           2           322  179     1       0.3879309022E-01     393  346    1      -0.1385214927E+02      0.8587488178E+02      0.1716163129E+04      0.3879309022E-01

    ------------------------------------------------
       NWT REQUIRED            3 OUTER ITERATIONS 
       AND A TOTAL OF          7 INNER ITERATIONS.
    ------------------------------------------------

 NO OUTPUT CONTROL FOR STRESS PERIOD    4   TIME STEP    2

 WELLS WITH REDUCED PUMPING FOR STRESS PERIOD     4 TIME STEP     2
   LAY   ROW   COL         APPL.Q          ACT.Q        GW-HEAD       CELL-BOT
     1    92    77  -0.620891E+03  -0.352342E+03  -0.798611E+02  -0.930000E+02


 SOLVING FOR HEAD 
                                                   Max.-Head-Change                        Max.-Flux-Residual
  Residual-Control   Outer-Iter.   Inner-Iter.     Column Row Layer    Max.-Head-Change    Column Row Layer    Max.-Flux-Residual            L2-New               L2-Old           Solver-Max-Delh
          0                 1           3           263   79     1       0.2881127119E+01     393  346    1       0.2390532718E+04      0.1371673002E+05      0.8587488178E+02      0.2881127119E+01
          0                 2           2           263   79     1      -0.2596419886E+00     393  346    1      -0.2391202339E+03      0.1375853442E+04      0.1371673002E+05     -0.2596419886E+00
          0                 3           2           216   55     1       0.4834192239E-01     393  346    1      -0.1195650500E+02      0.6917085255E+02      0.1375853442E+04      0.4834192239E-01

    ------------------------------------------------
       NWT REQUIRED            3 OUTER ITERATIONS 
       AND A TOTAL OF          7 INNER ITERATIONS.
    ------------------------------------------------

 NO OUTPUT CONTROL FOR STRESS PERIOD    4   TIME STEP    3

 WELLS WITH REDUCED PUMPING FOR STRESS PERIOD     4 TIME STEP     3
   LAY   ROW   COL         APPL.Q          ACT.Q        GW-HEAD       CELL-BOT
     1    92    77  -0.620891E+03  -0.408808E+03  -0.783630E+02  -0.930000E+02


 SOLVING FOR HEAD 
                                                   Max.-Head-Change                        Max.-Flux-Residual
  Residual-Control   Outer-Iter.   Inner-Iter.     Column Row Layer    Max.-Head-Change    Column Row Layer    Max.-Flux-Residual            L2-New               L2-Old           Solver-Max-Delh
          0                 1           3           263   79     1       0.1376293985E+01     393  346    1       0.2066804455E+04      0.1212302204E+05      0.6917085255E+02      0.1376293985E+01
          0                 2           2           216   55     1       0.2928397504E+00     393  346    1      -0.2067411864E+03      0.1220738018E+04      0.1212302204E+05      0.2928397504E+00
          0                 3           2           216   55     1       0.2576312014E+00     393  346    1      -0.1033750697E+02      0.6103913377E+02      0.1220738018E+04      0.2576312014E+00
          0                 4           2           216   55     1       0.2206390604E+00     393  346    1      -0.5167728444E+00      0.3051357326E+01      0.6103913377E+02      0.2206390604E+00
          0                 5           2           216   55     1       0.1886741670E+00     393  346    1      -0.2582829665E-01      0.1525329041E+00      0.3051357326E+01      0.1886741670E+00
          0                 6           2           216   55     1       0.1612824566E+00     216   55    1       0.2224604022E-02      0.8012017275E-02      0.1525329041E+00      0.1612824566E+00
          0                 7           2           216   55     1       0.1378061609E+00     216   55    1       0.1902378074E-02      0.2215792914E-02      0.8012017275E-02      0.1378061609E+00
          0                 8           2           216   55     1       0.1177564962E+00     216   55    1       0.1626778507E-02      0.1942850062E-02      0.2215792914E-02      0.1177564962E+00
          0                 9           2           216   55     1       0.1006308880E+00     216   55    1       0.1391057811E-02      0.1746095475E-02      0.1942850062E-02      0.1006308880E+00
          0                10           2           216   55     1       0.8600100588E-01     216   55    1       0.1189456246E-02      0.1586700980E-02      0.1746095475E-02      0.8600100588E-01

    ------------------------------------------------
       NWT REQUIRED           10 OUTER ITERATIONS 
       AND A TOTAL OF         21 INNER ITERATIONS.
    ------------------------------------------------

 NO OUTPUT CONTROL FOR STRESS PERIOD    4   TIME STEP    4

 WELLS WITH REDUCED PUMPING FOR STRESS PERIOD     4 TIME STEP     4
   LAY   ROW   COL         APPL.Q          ACT.Q        GW-HEAD       CELL-BOT
     1    92    77  -0.620891E+03  -0.449670E+03  -0.772268E+02  -0.930000E+02


 SOLVING FOR HEAD 
                                                   Max.-Head-Change                        Max.-Flux-Residual
  Residual-Control   Outer-Iter.   Inner-Iter.     Column Row Layer    Max.-Head-Change    Column Row Layer    Max.-Flux-Residual            L2-New               L2-Old           Solver-Max-Delh
          0                 1           3           264   78     1       0.9714769179E+00     374  316    1       0.1796512929E+04      0.1115036591E+05      0.1586700980E-02      0.9714769179E+00
          0                 2           2           216   55     1       0.9790441361E-01     374  316    1      -0.1796739887E+03      0.1122399595E+04      0.1115036591E+05      0.9790441361E-01

    ------------------------------------------------
       NWT REQUIRED            2 OUTER ITERATIONS 
       AND A TOTAL OF          5 INNER ITERATIONS.
    ------------------------------------------------

 NO OUTPUT CONTROL FOR STRESS PERIOD    4   TIME STEP    5

 WELLS WITH REDUCED PUMPING FOR STRESS PERIOD     4 TIME STEP     5
   LAY   ROW   COL         APPL.Q          ACT.Q        GW-HEAD       CELL-BOT
     1    92    77  -0.620891E+03  -0.479357E+03  -0.763543E+02  -0.930000E+02


 SOLVING FOR HEAD 
                                                   Max.-Head-Change                        Max.-Flux-Residual
  Residual-Control   Outer-Iter.   Inner-Iter.     Column Row Layer    Max.-Head-Change    Column Row Layer    Max.-Flux-Residual            L2-New               L2-Old           Solver-Max-Delh
          0                 1           3           264   78     1       0.7882484583E+00     383  326    1       0.1596366783E+04      0.1046758487E+05      0.5612062930E+02      0.7882484583E+00
          0                 2           2           320  171     1       0.9697896980E-01     383  326    1      -0.1596919786E+03      0.1046778076E+04      0.1046758487E+05      0.9697896980E-01

    ------------------------------------------------
       NWT REQUIRED            2 OUTER ITERATIONS 
       AND A TOTAL OF          5 INNER ITERATIONS.
    ------------------------------------------------

 NO OUTPUT CONTROL FOR STRESS PERIOD    4   TIME STEP    6

 WELLS WITH REDUCED PUMPING FOR STRESS PERIOD     4 TIME STEP     6
   LAY   ROW   COL         APPL.Q          ACT.Q        GW-HEAD       CELL-BOT
     1    92    77  -0.620891E+03  -0.500909E+03  -0.756842E+02  -0.930000E+02


 SOLVING FOR HEAD 
                                                   Max.-Head-Change                        Max.-Flux-Residual
  Residual-Control   Outer-Iter.   Inner-Iter.     Column Row Layer    Max.-Head-Change    Column Row Layer    Max.-Flux-Residual            L2-New               L2-Old           Solver-Max-Delh
          0                 1           3           343  217     1       0.7209421859E+00     383  326    1       0.1430632865E+04      0.9951882616E+04      0.5233820036E+02      0.7209421859E+00
          0                 2           2           320  171     1       0.9517037964E-01     383  326    1      -0.1431197802E+03      0.9952980608E+03      0.9951882616E+04      0.9517037964E-01

    ------------------------------------------------
       NWT REQUIRED            2 OUTER ITERATIONS 
       AND A TOTAL OF          5 INNER ITERATIONS.
    ------------------------------------------------

 NO OUTPUT CONTROL FOR STRESS PERIOD    4   TIME STEP    7

 WELLS WITH REDUCED PUMPING FOR STRESS PERIOD     4 TIME STEP     7
   LAY   ROW   COL         APPL.Q          ACT.Q        GW-HEAD       CELL-BOT
     1    92    77  -0.620891E+03  -0.516669E+03  -0.751679E+02  -0.930000E+02


 SOLVING FOR HEAD 
                                                   Max.-Head-Change                        Max.-Flux-Residual
  Residual-Control   Outer-Iter.   Inner-Iter.     Column Row Layer    Max.-Head-Change    Column Row Layer    Max.-Flux-Residual            L2-New               L2-Old           Solver-Max-Delh
          0                 1           3           343  217     1       0.6778451280E+00     383  326    1       0.1286356677E+04      0.9541286760E+04      0.4976730007E+02      0.6778451280E+00
          0                 2           2           320  171     1       0.9560288670E-01     383  326    1      -0.1286905678E+03      0.9540669118E+03      0.9541286760E+04      0.9560288670E-01

    ------------------------------------------------
       NWT REQUIRED            2 OUTER ITERATIONS 
       AND A TOTAL OF          5 INNER ITERATIONS.
    ------------------------------------------------

 NO OUTPUT CONTROL FOR STRESS PERIOD    4   TIME STEP    8

 WELLS WITH REDUCED PUMPING FOR STRESS PERIOD     4 TIME STEP     8
   LAY   ROW   COL         APPL.Q          ACT.Q        GW-HEAD       CELL-BOT
     1    92    77  -0.620891E+03  -0.528263E+03  -0.747698E+02  -0.930000E+02


 SOLVING FOR HEAD 
                                                   Max.-Head-Change                        Max.-Flux-Residual
  Residual-Control   Outer-Iter.   Inner-Iter.     Column Row Layer    Max.-Head-Change    Column Row Layer    Max.-Flux-Residual            L2-New               L2-Old           Solver-Max-Delh
          0                 1           3           343  217     1       0.6293509441E+00     383  326    1       0.1160406015E+04      0.9202432901E+04      0.4770293070E+02      0.6293509441E+00
          0                 2           2           320  171     1       0.9384365389E-01     383  326    1      -0.1160923307E+03      0.9221963255E+03      0.9202432901E+04      0.9384365389E-01

    ------------------------------------------------
       NWT REQUIRED            2 OUTER ITERATIONS 
       AND A TOTAL OF          5 INNER ITERATIONS.
    ------------------------------------------------

 NO OUTPUT CONTROL FOR STRESS PERIOD    4   TIME STEP    9

 WELLS WITH REDUCED PUMPING FOR STRESS PERIOD     4 TIME STEP     9
   LAY   ROW   COL         APPL.Q          ACT.Q        GW-HEAD       CELL-BOT
     1    92    77  -0.620891E+03  -0.536817E+03  -0.744640E+02  -0.930000E+02


 SOLVING FOR HEAD 
                                                   Max.-Head-Change                        Max.-Flux-Residual
  Residual-Control   Outer-Iter.   Inner-Iter.     Column Row Layer    Max.-Head-Change    Column Row Layer    Max.-Flux-Residual            L2-New               L2-Old           Solver-Max-Delh
          0                 1           3           343  217     1       0.5801521435E+00     383  326    1       0.1050153199E+04      0.8915535327E+04      0.4611969837E+02      0.5801521435E+00
          0                 2           2           288  130     1       0.1325950012E+00     492  514    1       0.1625341579E+03      0.9129056217E+03      0.8915535327E+04      0.1325950012E+00
          0                 3           2           288  130     1       0.9840189183E-01     492  514    1       0.8111249324E+01      0.4592326041E+02      0.9129056217E+03      0.9840189183E-01

    ------------------------------------------------
       NWT REQUIRED            3 OUTER ITERATIONS 
       AND A TOTAL OF          7 INNER ITERATIONS.
    ------------------------------------------------

 OUTPUT CONTROL FOR STRESS PERIOD    4   TIME STEP   10
    SAVE HEAD FOR ALL LAYERS

 WELLS WITH REDUCED PUMPING FOR STRESS PERIOD     4 TIME STEP    10
   LAY   ROW   COL         APPL.Q          ACT.Q        GW-HEAD       CELL-BOT
     1    92    77  -0.620891E+03  -0.543093E+03  -0.742320E+02  -0.930000E+02


 HEAD WILL BE SAVED ON UNIT   51 AT END OF TIME STEP   10, STRESS PERIOD    4
1
  VOLUMETRIC BUDGET FOR ENTIRE MODEL AT END OF TIME STEP   10, STRESS PERIOD   4
  ------------------------------------------------------------------------------

     CUMULATIVE VOLUMES      L**3       RATES FOR THIS TIME STEP      L**3/T
     ------------------                 ------------------------

           IN:                                      IN:
           ---                                      ---
             STORAGE =    95896408.0000               STORAGE =      304104.1562
       CONSTANT HEAD =     5536491.5000         CONSTANT HEAD =       47854.6953
               WELLS =           0.0000                 WELLS =           0.0000
              DRAINS =           0.0000                DRAINS =           0.0000
                  ET =           0.0000                    ET =           0.0000
            RECHARGE =    19882456.0000              RECHARGE =      138316.7500

            TOTAL IN =   121315352.0000              TOTAL IN =      490275.5938

          OUT:                                     OUT:
          ----                                     ----
             STORAGE =    55647844.0000               STORAGE =      159492.6562
       CONSTANT HEAD =           0.0000         CONSTANT HEAD =           0.0000
               WELLS =    44234952.0000                 WELLS =      155555.5625
              DRAINS =    12930948.0000                DRAINS =      111225.2031
                  ET =     8395923.0000                    ET =       63965.3086
            RECHARGE =       81860.0000              RECHARGE =           0.0000

           TOTAL OUT =   121291520.0000             TOTAL OUT =      490238.7500

            IN - OUT =       23832.0000              IN - OUT =          36.8438

 PERCENT DISCREPANCY =           0.02     PERCENT DISCREPANCY =           0.01






         TIME SUMMARY AT END OF TIME STEP   10 IN STRESS PERIOD    4
                    SECONDS     MINUTES      HOURS       DAYS        YEARS
                    -----------------------------------------------------------
   TIME STEP LENGTH 2.62656E+05  4377.6      72.960      3.0400     8.32307E-03
 STRESS PERIOD TIME 2.62656E+06  43776.      729.60      30.400     8.32307E-02
         TOTAL TIME 1.05062E+07 1.75104E+05  2918.4      121.60     0.33292    
1
1
                            STRESS PERIOD NO.    5, LENGTH =   30.40000    
                            -----------------------------------------------

                              NUMBER OF TIME STEPS =    10

                               MULTIPLIER FOR DELT =     1.000

                            INITIAL TIME STEP SIZE =   3.040000    

 WELL NO.  LAYER   ROW   COL   STRESS RATE         
 --------------------------------------------------
      1      1     69    225      -345.6    
      2      1     71    224      -6048.    
      3      1     74    220      -6134.    
      4      1     73    220       0.000    
      5      1     71    223      -6221.    
      6      1     71    223      -7344.    
      7      1     72    223      -6394.    
      8      1     92    173      -6653.    
      9      1     94    174      -5875.    
     10      1     93    175       0.000    
     11      1    203    328      -5875.    
     12      1    438    460      -550.5    
     13      1    436    461      -550.5    
     14      1    410    454      -550.5    
     15      1    433    460      -550.5    
     16      1    431    462      -550.5    
     17      1    417    459      -550.5    
     18      1    418    458      -550.5    
     19      1    414    455      -550.5    
     20      1    443    464      -550.5    
     21      1    379    425      -550.5    
     22      1    362    405      -550.5    
     23      1    361    405      -550.5    
     24      1    362    406      -550.5    
     25      1    363    408      -550.5    
     26      1    364    410      -550.5    
     27      1    369    418      -550.5    
     28      1    367    417      -550.5    
     29      1    365    415      -550.5    
     30      1    402    447      -550.5    
     31      1    400    446      -550.5    
     32      1    392    444      -550.5    
     33      1    391    441      -550.5    
     34      1    403    448      -550.5    
     35      1    405    447      -550.5    
     36      1    362    410      -550.5    
     37      1    362    411      -550.5    
     38      1    363    412      -550.5    
     39      1    375    421      -550.5    
     40      1    383    430      -550.5    
     41      1    397    445      -550.5    
     42      1    360    403      -550.5    
     43      1    350    401      -550.5    
     44      1    346    393      -581.6    
     45      1    333    387      -581.6    
     46      1    328    384      -581.6    
     47      1    326    383      -581.6    
     48      1    323    378      -581.6    
     49      1    321    378      -581.6    
     50      1    322    376      -581.6    
     51      1    316    374      -581.6    
     52      1    311    371      -581.6    
     53      1    307    369      -581.6    
     54      1    305    368      -581.6    
     55      1    303    368      -581.6    
     56      1    300    369      -581.6    
     57      1    293    364      -581.6    
     58      1    292    362      -581.6    
     59      1    278    350      -581.6    
     60      1    274    351      -581.6    
     61      1    273    350      -581.6    
     62      1    271    350      -581.6    
     63      1    267    348      -581.6    
     64      1    263    348      -581.6    
     65      1    263    348      -581.6    
     66      1    248    347      -581.6    
     67      1    243    342      -581.6    
     68      1    242    339      -581.6    
     69      1    238    341      -581.6    
     70      1    233    340      -581.6    
     71      1    232    340      -581.6    
     72      1    229    341      -581.6    
     73      1    227    341      -581.6    
     74      1    219    342      -581.6    
     75      1    219    336      -581.6    
     76      1    199    329      -581.6    
     77      1    191    332      -130.7    
     78      1    190    332      -130.7    
     79      1    130    310      -130.7    
     80      1    123    305      -130.7    
     81      1    104    289      -130.7    
     82      1     96    287      -1045.    
     83      1     95    284      -1045.    
     84      1     95    280      -1045.    
     85      1     93    276      -1045.    
     86      1     94    275      -1045.    
     87      1     90    277      -1045.    
     88      1     90    273      -1045.    
     89      1     86    271      -1045.    
     90      1     85    270      -1045.    
     91      1     84    265      -1045.    
     92      1     85    265      -1045.    
     93      1     84    264      -1045.    
     94      1     79    263      -1045.    
     95      1     79    263      -1045.    
     96      1     76    262      -1045.    
     97      1     73    257      -1045.    
     98      1     74    255      -1045.    
     99      1     71    255      -1045.    
    100      1     66    253      -1045.    
    101      1     68    252      -1045.    
    102      1     69    250      -1045.    
    103      1     65    248      -1045.    
    104      1     68    248      -1045.    
    105      1     69    247      -1045.    
    106      1     73    247      -1045.    
    107      1     64    246      -1045.    
    108      1     69    245      -1045.    
    109      1     72    245      -1045.    
    110      1     69    241      -1045.    
    111      1     73    238      -1045.    
    112      1     70    238      -1045.    
    113      1     76    263      -1045.    
    114      1     66    232      -728.1    
    115      1     69    229      -728.1    
    116      1     71    228      -728.1    
    117      1     69    227      -728.1    
    118      1     72    219      -728.1    
    119      1     72    218      -728.1    
    120      1     72    218      -728.1    
    121      1     73    217      -728.1    
    122      1     77    219      -728.1    
    123      1     78    219      -728.1    
    124      1     83    213      -728.1    
    125      1     77    213      -728.1    
    126      1     81    211      -728.1    
    127      1     81    210      -728.1    
    128      1     81    210      -728.1    
    129      1     82    208      -728.1    
    130      1     80    205      -728.1    
    131      1     86    202      -728.1    
    132      1     84    200      -728.1    
    133      1     89    200      -728.1    
    134      1     89    199      -728.1    
    135      1     88    199      -728.1    
    136      1     86    199      -728.1    
    137      1     85    199      -728.1    
    138      1     82    197      -728.1    
    139      1     86    197      -728.1    
    140      1     88    198      -728.1    
    141      1     90    192      -728.1    
    142      1     89    191      -728.1    
    143      1     84    192      -728.1    
    144      1     91    189      -728.1    
    145      1     92    185      -728.1    
    146      1     87    183      -728.1    
    147      1     92    182      -728.1    
    148      1     90    182      -728.1    
    149      1     88    179      -728.1    
    150      1     89    176      -728.1    
    151      1     92    172      -728.1    
    152      1     93    164      -728.1    
    153      1     94    162      -728.1    
    154      1    103    156      -728.1    
    155      1    103    156      -728.1    
    156      1     96    154      -728.1    
    157      1     97    153      -728.1    
    158      1    122    139      -728.1    
    159      1     92     77      -728.1    
    160      1     94     77      -728.1    
    161      1     94     73      -728.1    
    162      1     97    152      -728.1    
    163      1    118    337      -666.7    
    164      1    133    319      -2678.    
    165      1    131    320      -3951.    
    166      1    133    321      -2956.    
    167      1    161    329      -2141.    
    168      1    178    330      -551.0    
    169      1    163    330      -1122.    
    170      1    131    320      -2473.    
    171      1    129    315      -3937.    
    172      1    162    329      -1959.    
    173      1    131    311      -826.1    
    174      1    221    340      -1994.    
    175      1    220    340      -1034.    
    176      1    221    340      -667.7    
    177      1    137    322      -2082.    
    178      1    137    321      -1407.    
    179      1    185    329      -2012.    
    180      1    183    329      -1473.    
    181      1    175    329      -585.3    
    182      1     79    243      -1490.    
    183      1     77    245      -2414.    
    184      1    199    329      -1617.    
    185      1    198    330      -2514.    
    186      1    140    328      -972.1    
    187      1    143    327      -863.6    
    188      1    139    327      -1331.    

    188 WELLS

 REUSING NON-PARAMETER DRAINS FROM LAST STRESS PERIOD

   1061 DRAINS

 REUSING SURF FROM LAST STRESS PERIOD

 REUSING EVTR FROM LAST STRESS PERIOD

 REUSING EXDP FROM LAST STRESS PERIOD



                           RECHARGE
 READING ON UNIT   19 WITH FORMAT: (510E15.6)          

 SOLVING FOR HEAD 
                                                   Max.-Head-Change                        Max.-Flux-Residual
  Residual-Control   Outer-Iter.   Inner-Iter.     Column Row Layer    Max.-Head-Change    Column Row Layer    Max.-Flux-Residual            L2-New               L2-Old           Solver-Max-Delh
          0                 1           3           263   79     1      -0.2667770904E+01     175   93    1       0.5859363974E+04      0.1398206752E+05      0.4592326041E+02     -0.2667770904E+01
          0                 2           2           263   79     1       0.2284313826E+00     220   73    1      -0.6114948952E+03      0.1411773267E+04      0.1398206752E+05      0.2284313826E+00
          0                 3           2           288  130     1       0.4076188793E-01     220   73    1      -0.3063727752E+02      0.7040355608E+02      0.1411773267E+04      0.4076188793E-01

    ------------------------------------------------
       NWT REQUIRED            3 OUTER ITERATIONS 
       AND A TOTAL OF          7 INNER ITERATIONS.
    ------------------------------------------------

 NO OUTPUT CONTROL FOR STRESS PERIOD    5   TIME STEP    1

 WELLS WITH REDUCED PUMPING FOR STRESS PERIOD     5 TIME STEP     1
   LAY   ROW   COL         APPL.Q          ACT.Q        GW-HEAD       CELL-BOT
     1    92    77  -0.728135E+03  -0.624875E+03  -0.746076E+02  -0.930000E+02


 SOLVING FOR HEAD 
                                                   Max.-Head-Change                        Max.-Flux-Residual
  Residual-Control   Outer-Iter.   Inner-Iter.     Column Row Layer    Max.-Head-Change    Column Row Layer    Max.-Flux-Residual            L2-New               L2-Old           Solver-Max-Delh
          0                 1           3           263   79     1      -0.9488876524E+00     220   73    1       0.9437274050E+03      0.9712942590E+04      0.7040355608E+02     -0.9488876524E+00
          0                 2           2           320  171     1       0.9226523158E-01     220   73    1      -0.9460117909E+02      0.9717572129E+03      0.9712942590E+04      0.9226523158E-01

    ------------------------------------------------
       NWT REQUIRED            2 OUTER ITERATIONS 
       AND A TOTAL OF          5 INNER ITERATIONS.
    ------------------------------------------------

 NO OUTPUT CONTROL FOR STRESS PERIOD    5   TIME STEP    2

 WELLS WITH REDUCED PUMPING FOR STRESS PERIOD     5 TIME STEP     2
   LAY   ROW   COL         APPL.Q          ACT.Q        GW-HEAD       CELL-BOT
     1    92    77  -0.728135E+03  -0.614527E+03  -0.749176E+02  -0.930000E+02


 SOLVING FOR HEAD 
                                                   Max.-Head-Change                        Max.-Flux-Residual
  Residual-Control   Outer-Iter.   Inner-Iter.     Column Row Layer    Max.-Head-Change    Column Row Layer    Max.-Flux-Residual            L2-New               L2-Old           Solver-Max-Delh
          0                 1           3            77   91     1      -0.5225416600E+00      77   94    1      -0.6680677599E+03      0.9129238527E+04      0.4859157706E+02     -0.5225416600E+00
          0                 2           2           320  171     1       0.9098821324E-01      77   94    1       0.6679666195E+02      0.9131480850E+03      0.9129238527E+04      0.9098821324E-01

    ------------------------------------------------
       NWT REQUIRED            2 OUTER ITERATIONS 
       AND A TOTAL OF          5 INNER ITERATIONS.
    ------------------------------------------------

 NO OUTPUT CONTROL FOR STRESS PERIOD    5   TIME STEP    3

 WELLS WITH REDUCED PUMPING FOR STRESS PERIOD     5 TIME STEP     3
   LAY   ROW   COL         APPL.Q          ACT.Q        GW-HEAD       CELL-BOT
     1    92    77  -0.728135E+03  -0.605745E+03  -0.751727E+02  -0.930000E+02


 SOLVING FOR HEAD 
                                                   Max.-Head-Change                        Max.-Flux-Residual
  Residual-Control   Outer-Iter.   Inner-Iter.     Column Row Layer    Max.-Head-Change    Column Row Layer    Max.-Flux-Residual            L2-New               L2-Old           Solver-Max-Delh
          0                 1           3           317  174     1       0.2919006019E+01      77   94    1      -0.6675682451E+03      0.8818981559E+04      0.4591521173E+02      0.2919006019E+01
          0                 2           2           317  174     1       0.8457614964E+00      77   94    1       0.6674672523E+02      0.8828985908E+03      0.8818981559E+04      0.8457614964E+00
          0                 3           2           317  174     1       0.2927166835E+00      77   94    1       0.3337262272E+01      0.4414352161E+02      0.8828985908E+03      0.2927166835E+00
          0                 4           2           317  174     1       0.1015563319E+00      77   94    1       0.1668296192E+00      0.2206740731E+01      0.4414352161E+02      0.1015563319E+00
          0                 5           2           317  174     1       0.3537093501E-01      77   94    1       0.8338147207E-02      0.1103305797E+00      0.2206740731E+01      0.3537093501E-01

    ------------------------------------------------
       NWT REQUIRED            5 OUTER ITERATIONS 
       AND A TOTAL OF         11 INNER ITERATIONS.
    ------------------------------------------------

 NO OUTPUT CONTROL FOR STRESS PERIOD    5   TIME STEP    4

 WELLS WITH REDUCED PUMPING FOR STRESS PERIOD     5 TIME STEP     4
   LAY   ROW   COL         APPL.Q          ACT.Q        GW-HEAD       CELL-BOT
     1    92    77  -0.728135E+03  -0.598344E+03  -0.753824E+02  -0.930000E+02


 SOLVING FOR HEAD 
                                                   Max.-Head-Change                        Max.-Flux-Residual
  Residual-Control   Outer-Iter.   Inner-Iter.     Column Row Layer    Max.-Head-Change    Column Row Layer    Max.-Flux-Residual            L2-New               L2-Old           Solver-Max-Delh
          0                 1           3           316  174     1       0.2531747187E+01      77   94    1      -0.6670719711E+03      0.8592012419E+04      0.1103305797E+00      0.2531747187E+01
          0                 2           2           316  174     1       0.1344295059E+01      77   94    1       0.6669711247E+02      0.8592302938E+03      0.8592012419E+04      0.1344295059E+01
          0                 3           2           316  174     1       0.7000432887E+00      77   94    1       0.3334782151E+01      0.4296132655E+02      0.8592302938E+03      0.7000432887E+00
          0                 4           2           316  174     1       0.3688496114E+00      77   94    1       0.1667056587E+00      0.2147658875E+01      0.4296132655E+02      0.3688496114E+00
          0                 5           2           316  174     1       0.1954723155E+00      77   94    1       0.8331952639E-02      0.1074675960E+00      0.2147658875E+01      0.1954723155E+00
          0                 6           2           316  174     1       0.1038996501E+00     316  174    1       0.2304465199E-02      0.6138114131E-02      0.1074675960E+00      0.1038996501E+00
          0                 7           2           316  174     1       0.5531214235E-01     316  174    1       0.1228559481E-02      0.1921398188E-02      0.6138114131E-02      0.5531214235E-01

    ------------------------------------------------
       NWT REQUIRED            7 OUTER ITERATIONS 
       AND A TOTAL OF         15 INNER ITERATIONS.
    ------------------------------------------------

 NO OUTPUT CONTROL FOR STRESS PERIOD    5   TIME STEP    5

 WELLS WITH REDUCED PUMPING FOR STRESS PERIOD     5 TIME STEP     5
   LAY   ROW   COL         APPL.Q          ACT.Q        GW-HEAD       CELL-BOT
     1    92    77  -0.728135E+03  -0.592055E+03  -0.755574E+02  -0.930000E+02


 SOLVING FOR HEAD 
                                                   Max.-Head-Change                        Max.-Flux-Residual
  Residual-Control   Outer-Iter.   Inner-Iter.     Column Row Layer    Max.-Head-Change    Column Row Layer    Max.-Flux-Residual            L2-New               L2-Old           Solver-Max-Delh
          0                 1           3            77   91     1      -0.4917064005E+00      77   94    1      -0.6665761081E+03      0.8405357404E+04      0.1921398188E-02     -0.4917064005E+00
          0                 2           2           320  171     1       0.8909400163E-01      77   94    1       0.6664754077E+02      0.8405449039E+03      0.8405357404E+04      0.8909400163E-01

    ------------------------------------------------
       NWT REQUIRED            2 OUTER ITERATIONS 
       AND A TOTAL OF          5 INNER ITERATIONS.
    ------------------------------------------------

 NO OUTPUT CONTROL FOR STRESS PERIOD    5   TIME STEP    6

 WELLS WITH REDUCED PUMPING FOR STRESS PERIOD     5 TIME STEP     6
   LAY   ROW   COL         APPL.Q          ACT.Q        GW-HEAD       CELL-BOT
     1    92    77  -0.728135E+03  -0.586651E+03  -0.757054E+02  -0.930000E+02


 SOLVING FOR HEAD 
                                                   Max.-Head-Change                        Max.-Flux-Residual
  Residual-Control   Outer-Iter.   Inner-Iter.     Column Row Layer    Max.-Head-Change    Column Row Layer    Max.-Flux-Residual            L2-New               L2-Old           Solver-Max-Delh
          0                 1           3            77   91     1      -0.4817215852E+00      77   94    1      -0.6660782730E+03      0.8242401143E+04      0.4202696989E+02     -0.4817215852E+00
          0                 2           2           316  173     1       0.1146957451E+00      77   94    1       0.6659777192E+02      0.8241906777E+03      0.8242401143E+04      0.1146957451E+00
          0                 3           2           316  173     1       0.1126743143E+00      77   94    1       0.3329815866E+01      0.4120921012E+02      0.8241906777E+03      0.1126743143E+00
          0                 4           2           316  173     1       0.1107188795E+00      77   94    1       0.1664574208E+00      0.2060049051E+01      0.4120921012E+02      0.1107188795E+00
          0                 5           2           316  173     1       0.1088123151E+00      77   94    1       0.8319547069E-02      0.1029790062E+00      0.2060049051E+01      0.1088123151E+00
          0                 6           2           316  173     1       0.1069470248E+00     316  173    1       0.1320541555E-02      0.5480653260E-02      0.1029790062E+00      0.1069470248E+00
          0                 7           2           316  173     1       0.1051188441E+00     316  173    1       0.1299180603E-02      0.1882568361E-02      0.5480653260E-02      0.1051188441E+00
          0                 8           2           316  173     1       0.1033252824E+00     316  173    1       0.1278163803E-02      0.1843344741E-02      0.1882568361E-02      0.1033252824E+00
          0                 9           2           316  173     1       0.1015647513E+00     316  173    1       0.1257485298E-02      0.1823311086E-02      0.1843344741E-02      0.1015647513E+00
          0                10           2           316  173     1       0.9983612612E-01     316  173    1       0.1237139483E-02      0.1804674401E-02      0.1823311086E-02      0.9983612612E-01

    ------------------------------------------------
       NWT REQUIRED           10 OUTER ITERATIONS 
       AND A TOTAL OF         21 INNER ITERATIONS.
    ------------------------------------------------

 NO OUTPUT CONTROL FOR STRESS PERIOD    5   TIME STEP    7

 WELLS WITH REDUCED PUMPING FOR STRESS PERIOD     5 TIME STEP     7
   LAY   ROW   COL         APPL.Q          ACT.Q        GW-HEAD       CELL-BOT
     1    92    77  -0.728135E+03  -0.582022E+03  -0.758308E+02  -0.930000E+02


 SOLVING FOR HEAD 
                                                   Max.-Head-Change                        Max.-Flux-Residual
  Residual-Control   Outer-Iter.   Inner-Iter.     Column Row Layer    Max.-Head-Change    Column Row Layer    Max.-Flux-Residual            L2-New               L2-Old           Solver-Max-Delh
          0                 1           3            77   91     1      -0.4719930148E+00      77   94    1      -0.6655835728E+03      0.8096934627E+04      0.1804674401E-02     -0.4719930148E+00
          0                 2           2           316  173     1       0.9367963530E-01      77   94    1       0.6654831644E+02      0.8097113180E+03      0.8096934627E+04      0.9367963530E-01

    ------------------------------------------------
       NWT REQUIRED            2 OUTER ITERATIONS 
       AND A TOTAL OF          5 INNER ITERATIONS.
    ------------------------------------------------

 NO OUTPUT CONTROL FOR STRESS PERIOD    5   TIME STEP    8

 WELLS WITH REDUCED PUMPING FOR STRESS PERIOD     5 TIME STEP     8
   LAY   ROW   COL         APPL.Q          ACT.Q        GW-HEAD       CELL-BOT
     1    92    77  -0.728135E+03  -0.577970E+03  -0.759393E+02  -0.930000E+02


 SOLVING FOR HEAD 
                                                   Max.-Head-Change                        Max.-Flux-Residual
  Residual-Control   Outer-Iter.   Inner-Iter.     Column Row Layer    Max.-Head-Change    Column Row Layer    Max.-Flux-Residual            L2-New               L2-Old           Solver-Max-Delh
          0                 1           3            77   91     1      -0.4624377006E+00      77   94    1      -0.6650869281E+03      0.7963151524E+04      0.4048530227E+02     -0.4624377006E+00
          0                 2           2           316  173     1       0.8802024701E-01      77   94    1       0.6649866658E+02      0.7963702783E+03      0.7963151524E+04      0.8802024701E-01

    ------------------------------------------------
       NWT REQUIRED            2 OUTER ITERATIONS 
       AND A TOTAL OF          5 INNER ITERATIONS.
    ------------------------------------------------

 NO OUTPUT CONTROL FOR STRESS PERIOD    5   TIME STEP    9

 WELLS WITH REDUCED PUMPING FOR STRESS PERIOD     5 TIME STEP     9
   LAY   ROW   COL         APPL.Q          ACT.Q        GW-HEAD       CELL-BOT
     1    92    77  -0.728135E+03  -0.574404E+03  -0.760341E+02  -0.930000E+02


 SOLVING FOR HEAD 
                                                   Max.-Head-Change                        Max.-Flux-Residual
  Residual-Control   Outer-Iter.   Inner-Iter.     Column Row Layer    Max.-Head-Change    Column Row Layer    Max.-Flux-Residual            L2-New               L2-Old           Solver-Max-Delh
          0                 1           3            77   91     1      -0.4531129361E+00      77   94    1      -0.6645908769E+03      0.7838848271E+04      0.3981805358E+02     -0.4531129361E+00
          0                 2           2           320  171     1       0.8610176087E-01      77   94    1       0.6644907604E+02      0.7838654882E+03      0.7838848271E+04      0.8610176087E-01

    ------------------------------------------------
       NWT REQUIRED            2 OUTER ITERATIONS 
       AND A TOTAL OF          5 INNER ITERATIONS.
    ------------------------------------------------

 OUTPUT CONTROL FOR STRESS PERIOD    5   TIME STEP   10
    SAVE HEAD FOR ALL LAYERS

 WELLS WITH REDUCED PUMPING FOR STRESS PERIOD     5 TIME STEP    10
   LAY   ROW   COL         APPL.Q          ACT.Q        GW-HEAD       CELL-BOT
     1    92    77  -0.728135E+03  -0.571227E+03  -0.761179E+02  -0.930000E+02


 HEAD WILL BE SAVED ON UNIT   51 AT END OF TIME STEP   10, STRESS PERIOD    5
1
  VOLUMETRIC BUDGET FOR ENTIRE MODEL AT END OF TIME STEP   10, STRESS PERIOD   5
  ------------------------------------------------------------------------------

     CUMULATIVE VOLUMES      L**3       RATES FOR THIS TIME STEP      L**3/T
     ------------------                 ------------------------

           IN:                                      IN:
           ---                                      ---
             STORAGE =   104688432.0000               STORAGE =      277750.5312
       CONSTANT HEAD =     6997563.5000         CONSTANT HEAD =       48212.8789
               WELLS =           0.0000                 WELLS =           0.0000
              DRAINS =           0.0000                DRAINS =           0.0000
                  ET =           0.0000                    ET =           0.0000
            RECHARGE =    25482196.0000              RECHARGE =      184201.6875

            TOTAL IN =   137168192.0000              TOTAL IN =      510165.0938

          OUT:                                     OUT:
          ----                                     ----
             STORAGE =    60293004.0000               STORAGE =      139327.4844
       CONSTANT HEAD =           0.0000         CONSTANT HEAD =           0.0000
               WELLS =    50032760.0000                 WELLS =      190695.7344
              DRAINS =    16382845.0000                DRAINS =      115408.8906
                  ET =    10341407.0000                    ET =       64046.3281
            RECHARGE =       81860.0000              RECHARGE =           0.0000

           TOTAL OUT =   137131872.0000             TOTAL OUT =      509478.4375

            IN - OUT =       36320.0000              IN - OUT =         686.6562

 PERCENT DISCREPANCY =           0.03     PERCENT DISCREPANCY =           0.13






         TIME SUMMARY AT END OF TIME STEP   10 IN STRESS PERIOD    5
                    SECONDS     MINUTES      HOURS       DAYS        YEARS
                    -----------------------------------------------------------
   TIME STEP LENGTH 2.62656E+05  4377.6      72.960      3.0400     8.32307E-03
 STRESS PERIOD TIME 2.62656E+06  43776.      729.60      30.400     8.32307E-02
         TOTAL TIME 1.31328E+07 2.18880E+05  3648.0      152.00     0.41615    
1
1
                            STRESS PERIOD NO.    6, LENGTH =   30.40000    
                            -----------------------------------------------

                              NUMBER OF TIME STEPS =    10

                               MULTIPLIER FOR DELT =     1.000

                            INITIAL TIME STEP SIZE =   3.040000    

 WELL NO.  LAYER   ROW   COL   STRESS RATE         
 --------------------------------------------------
      1      1     69    225      -432.0    
      2      1     71    224      -6048.    
      3      1     74    220      -6134.    
      4      1     73    220       0.000    
      5      1     71    223      -6221.    
      6      1     71    223      -7344.    
      7      1     72    223      -6394.    
      8      1     92    173      -6653.    
      9      1     94    174      -5875.    
     10      1     93    175       0.000    
     11      1    203    328      -5875.    
     12      1    438    460      -2651.    
     13      1    436    461      -2651.    
     14      1    410    454      -2651.    
     15      1    433    460      -2651.    
     16      1    431    462      -2651.    
     17      1    417    459      -2651.    
     18      1    418    458      -2651.    
     19      1    414    455      -2651.    
     20      1    443    464      -2651.    
     21      1    379    425      -2651.    
     22      1    362    405      -2651.    
     23      1    361    405      -2651.    
     24      1    362    406      -2651.    
     25      1    363    408      -2651.    
     26      1    364    410      -2651.    
     27      1    369    418      -2651.    
     28      1    367    417      -2651.    
     29      1    365    415      -2651.    
     30      1    402    447      -2651.    
     31      1    400    446      -2651.    
     32      1    392    444      -2651.    
     33      1    391    441      -2651.    
     34      1    403    448      -2651.    
     35      1    405    447      -2651.    
     36      1    362    410      -2651.    
     37      1    362    411      -2651.    
     38      1    363    412      -2651.    
     39      1    375    421      -2651.    
     40      1    383    430      -2651.    
     41      1    397    445      -2651.    
     42      1    360    403      -2651.    
     43      1    350    401      -2651.    
     44      1    346    393      -3318.    
     45      1    333    387      -3318.    
     46      1    328    384      -3318.    
     47      1    326    383      -3318.    
     48      1    323    378      -3318.    
     49      1    321    378      -3318.    
     50      1    322    376      -3318.    
     51      1    316    374      -3318.    
     52      1    311    371      -3318.    
     53      1    307    369      -3318.    
     54      1    305    368      -3318.    
     55      1    303    368      -3318.    
     56      1    300    369      -3318.    
     57      1    293    364      -3318.    
     58      1    292    362      -3318.    
     59      1    278    350      -3318.    
     60      1    274    351      -3318.    
     61      1    273    350      -3318.    
     62      1    271    350      -3318.    
     63      1    267    348      -3318.    
     64      1    263    348      -3318.    
     65      1    263    348      -3318.    
     66      1    248    347      -3318.    
     67      1    243    342      -3318.    
     68      1    242    339      -3318.    
     69      1    238    341      -3318.    
     70      1    233    340      -3318.    
     71      1    232    340      -3318.    
     72      1    229    341      -3318.    
     73      1    227    341      -3318.    
     74      1    219    342      -3318.    
     75      1    219    336      -3318.    
     76      1    199    329      -3318.    
     77      1    191    332      -4439.    
     78      1    190    332      -4439.    
     79      1    130    310      -4439.    
     80      1    123    305      -4439.    
     81      1    104    289      -4439.    
     82      1     96    287      -4290.    
     83      1     95    284      -4290.    
     84      1     95    280      -4290.    
     85      1     93    276      -4290.    
     86      1     94    275      -4290.    
     87      1     90    277      -4290.    
     88      1     90    273      -4290.    
     89      1     86    271      -4290.    
     90      1     85    270      -4290.    
     91      1     84    265      -4290.    
     92      1     85    265      -4290.    
     93      1     84    264      -4290.    
     94      1     79    263      -4290.    
     95      1     79    263      -4290.    
     96      1     76    262      -4290.    
     97      1     73    257      -4290.    
     98      1     74    255      -4290.    
     99      1     71    255      -4290.    
    100      1     66    253      -4290.    
    101      1     68    252      -4290.    
    102      1     69    250      -4290.    
    103      1     65    248      -4290.    
    104      1     68    248      -4290.    
    105      1     69    247      -4290.    
    106      1     73    247      -4290.    
    107      1     64    246      -4290.    
    108      1     69    245      -4290.    
    109      1     72    245      -4290.    
    110      1     69    241      -4290.    
    111      1     73    238      -4290.    
    112      1     70    238      -4290.    
    113      1     76    263      -4290.    
    114      1     66    232      -2310.    
    115      1     69    229      -2310.    
    116      1     71    228      -2310.    
    117      1     69    227      -2310.    
    118      1     72    219      -2310.    
    119      1     72    218      -2310.    
    120      1     72    218      -2310.    
    121      1     73    217      -2310.    
    122      1     77    219      -2310.    
    123      1     78    219      -2310.    
    124      1     83    213      -2310.    
    125      1     77    213      -2310.    
    126      1     81    211      -2310.    
    127      1     81    210      -2310.    
    128      1     81    210      -2310.    
    129      1     82    208      -2310.    
    130      1     80    205      -2310.    
    131      1     86    202      -2310.    
    132      1     84    200      -2310.    
    133      1     89    200      -2310.    
    134      1     89    199      -2310.    
    135      1     88    199      -2310.    
    136      1     86    199      -2310.    
    137      1     85    199      -2310.    
    138      1     82    197      -2310.    
    139      1     86    197      -2310.    
    140      1     88    198      -2310.    
    141      1     90    192      -2310.    
    142      1     89    191      -2310.    
    143      1     84    192      -2310.    
    144      1     91    189      -2310.    
    145      1     92    185      -2310.    
    146      1     87    183      -2310.    
    147      1     92    182      -2310.    
    148      1     90    182      -2310.    
    149      1     88    179      -2310.    
    150      1     89    176      -2310.    
    151      1     92    172      -2310.    
    152      1     93    164      -2310.    
    153      1     94    162      -2310.    
    154      1    103    156      -2310.    
    155      1    103    156      -2310.    
    156      1     96    154      -2310.    
    157      1     97    153      -2310.    
    158      1    122    139      -2310.    
    159      1     92     77      -2310.    
    160      1     94     77      -2310.    
    161      1     94     73      -2310.    
    162      1     97    152      -2310.    
    163      1    118    337      -666.7    
    164      1    133    319      -2678.    
    165      1    131    320      -3951.    
    166      1    133    321      -2956.    
    167      1    161    329      -2141.    
    168      1    178    330      -551.0    
    169      1    163    330      -1122.    
    170      1    131    320      -2473.    
    171      1    129    315      -3937.    
    172      1    162    329      -1959.    
    173      1    131    311      -826.1    
    174      1    221    340      -1994.    
    175      1    220    340      -1034.    
    176      1    221    340      -667.7    
    177      1    137    322      -2082.    
    178      1    137    321      -1407.    
    179      1    185    329      -2012.    
    180      1    183    329      -1473.    
    181      1    175    329      -585.3    
    182      1     79    243      -1490.    
    183      1     77    245      -2414.    
    184      1    199    329      -1617.    
    185      1    198    330      -2514.    
    186      1    140    328      -972.1    
    187      1    143    327      -863.6    
    188      1    139    327      -1331.    

    188 WELLS

 REUSING NON-PARAMETER DRAINS FROM LAST STRESS PERIOD

   1061 DRAINS

 REUSING SURF FROM LAST STRESS PERIOD

 REUSING EVTR FROM LAST STRESS PERIOD

 REUSING EXDP FROM LAST STRESS PERIOD



                           RECHARGE
 READING ON UNIT   19 WITH FORMAT: (510E15.6)          

 SOLVING FOR HEAD 
                                                   Max.-Head-Change                        Max.-Flux-Residual
  Residual-Control   Outer-Iter.   Inner-Iter.     Column Row Layer    Max.-Head-Change    Column Row Layer    Max.-Flux-Residual            L2-New               L2-Old           Solver-Max-Delh
          0                 1           3           263   79     1      -0.1717497888E+02     263   79    1      -0.6465512449E+04      0.3051300593E+05      0.3919300160E+02     -0.1717497888E+02
          0                 2           2           263   79     1       0.1334726248E+01     201   89    1       0.7989070513E+03      0.3107398714E+04      0.3051300593E+05      0.1334726248E+01
          0                 3           2           316  173     1       0.7704618268E-01     201   89    1       0.3976699367E+02      0.1574240168E+03      0.3107398714E+04      0.7704618268E-01

    ------------------------------------------------
       NWT REQUIRED            3 OUTER ITERATIONS 
       AND A TOTAL OF          7 INNER ITERATIONS.
    ------------------------------------------------

 NO OUTPUT CONTROL FOR STRESS PERIOD    6   TIME STEP    1

 WELLS WITH REDUCED PUMPING FOR STRESS PERIOD     6 TIME STEP     1
   LAY   ROW   COL         APPL.Q          ACT.Q        GW-HEAD       CELL-BOT
     1    92    77  -0.230952E+04  -0.119851E+04  -0.806439E+02  -0.930000E+02


 SOLVING FOR HEAD 
                                                   Max.-Head-Change                        Max.-Flux-Residual
  Residual-Control   Outer-Iter.   Inner-Iter.     Column Row Layer    Max.-Head-Change    Column Row Layer    Max.-Flux-Residual            L2-New               L2-Old           Solver-Max-Delh
          0                 1           3           263   79     1      -0.6728977666E+01     156  103    1      -0.2520536784E+04      0.1558244812E+05      0.1574240168E+03     -0.6728977666E+01
          0                 2           3           263   79     1       0.5471708113E+00     156  103    1       0.2518266502E+03      0.1552997121E+04      0.1558244812E+05      0.5471708113E+00
          0                 3           2           316  173     1       0.7183407415E-01     156  103    1       0.1258963407E+02      0.7764413847E+02      0.1552997121E+04      0.7183407415E-01

    ------------------------------------------------
       NWT REQUIRED            3 OUTER ITERATIONS 
       AND A TOTAL OF          8 INNER ITERATIONS.
    ------------------------------------------------

 NO OUTPUT CONTROL FOR STRESS PERIOD    6   TIME STEP    2

 WELLS WITH REDUCED PUMPING FOR STRESS PERIOD     6 TIME STEP     2
   LAY   ROW   COL         APPL.Q          ACT.Q        GW-HEAD       CELL-BOT
     1    92    77  -0.230952E+04  -0.889572E+03  -0.828082E+02  -0.930000E+02


 SOLVING FOR HEAD 
                                                   Max.-Head-Change                        Max.-Flux-Residual
  Residual-Control   Outer-Iter.   Inner-Iter.     Column Row Layer    Max.-Head-Change    Column Row Layer    Max.-Flux-Residual            L2-New               L2-Old           Solver-Max-Delh
          0                 1           3           263   79     1      -0.2974863729E+01      77   94    1      -0.2220118439E+04      0.1304895662E+05      0.7764413847E+02     -0.2974863729E+01
          0                 2           2           263   79     1       0.2486898043E+00      77   94    1       0.2219005249E+03      0.1316825704E+04      0.1304895662E+05      0.2486898043E+00
          0                 3           2           316  173     1       0.6714307491E-01      77   94    1       0.1109419529E+02      0.6582323927E+02      0.1316825704E+04      0.6714307491E-01

    ------------------------------------------------
       NWT REQUIRED            3 OUTER ITERATIONS 
       AND A TOTAL OF          7 INNER ITERATIONS.
    ------------------------------------------------

 NO OUTPUT CONTROL FOR STRESS PERIOD    6   TIME STEP    3

 WELLS WITH REDUCED PUMPING FOR STRESS PERIOD     6 TIME STEP     3
   LAY   ROW   COL         APPL.Q          ACT.Q        GW-HEAD       CELL-BOT
     1    92    77  -0.230952E+04  -0.744030E+03  -0.838629E+02  -0.930000E+02


 SOLVING FOR HEAD 
                                                   Max.-Head-Change                        Max.-Flux-Residual
  Residual-Control   Outer-Iter.   Inner-Iter.     Column Row Layer    Max.-Head-Change    Column Row Layer    Max.-Flux-Residual            L2-New               L2-Old           Solver-Max-Delh
          0                 1           3           263   79     1      -0.1530941933E+01      77   94    1      -0.2218346805E+04      0.1195460234E+05      0.6582323927E+02     -0.1530941933E+01
          0                 2           2           263   79     1       0.1299175235E+00      77   94    1       0.2217235243E+03      0.1205915051E+04      0.1195460234E+05      0.1299175235E+00
          0                 3           2           316  173     1       0.6293221440E-01      77   94    1       0.1108535039E+02      0.6028404705E+02      0.1205915051E+04      0.6293221440E-01

    ------------------------------------------------
       NWT REQUIRED            3 OUTER ITERATIONS 
       AND A TOTAL OF          7 INNER ITERATIONS.
    ------------------------------------------------

 NO OUTPUT CONTROL FOR STRESS PERIOD    6   TIME STEP    4

 WELLS WITH REDUCED PUMPING FOR STRESS PERIOD     6 TIME STEP     4
   LAY   ROW   COL         APPL.Q          ACT.Q        GW-HEAD       CELL-BOT
     1    92    77  -0.230952E+04  -0.673854E+03  -0.843877E+02  -0.930000E+02


 SOLVING FOR HEAD 
                                                   Max.-Head-Change                        Max.-Flux-Residual
  Residual-Control   Outer-Iter.   Inner-Iter.     Column Row Layer    Max.-Head-Change    Column Row Layer    Max.-Flux-Residual            L2-New               L2-Old           Solver-Max-Delh
          0                 1           3           264   78     1      -0.1030011441E+01      77   94    1      -0.2216577038E+04      0.1132942456E+05      0.6028404705E+02     -0.1030011441E+01
          0                 2           2           264   78     1       0.8768185934E-01      77   94    1       0.2215467114E+03      0.1144727061E+04      0.1132942456E+05      0.8768185934E-01

    ------------------------------------------------
       NWT REQUIRED            2 OUTER ITERATIONS 
       AND A TOTAL OF          5 INNER ITERATIONS.
    ------------------------------------------------

 NO OUTPUT CONTROL FOR STRESS PERIOD    6   TIME STEP    5

 WELLS WITH REDUCED PUMPING FOR STRESS PERIOD     6 TIME STEP     5
   LAY   ROW   COL         APPL.Q          ACT.Q        GW-HEAD       CELL-BOT
     1    92    77  -0.230952E+04  -0.638748E+03  -0.846555E+02  -0.930000E+02


 SOLVING FOR HEAD 
                                                   Max.-Head-Change                        Max.-Flux-Residual
  Residual-Control   Outer-Iter.   Inner-Iter.     Column Row Layer    Max.-Head-Change    Column Row Layer    Max.-Flux-Residual            L2-New               L2-Old           Solver-Max-Delh
          0                 1           3            77   94     1      -0.9171810068E+00      77   94    1      -0.2214800971E+04      0.1091063012E+05      0.5723082558E+02     -0.9171810068E+00
          0                 2           2           318  171     1       0.8844944873E-01      77   94    1       0.2213692699E+03      0.1090694360E+04      0.1091063012E+05      0.8844944873E-01

    ------------------------------------------------
       NWT REQUIRED            2 OUTER ITERATIONS 
       AND A TOTAL OF          5 INNER ITERATIONS.
    ------------------------------------------------

 NO OUTPUT CONTROL FOR STRESS PERIOD    6   TIME STEP    6

 WELLS WITH REDUCED PUMPING FOR STRESS PERIOD     6 TIME STEP     6
   LAY   ROW   COL         APPL.Q          ACT.Q        GW-HEAD       CELL-BOT
     1    92    77  -0.230952E+04  -0.620720E+03  -0.847946E+02  -0.930000E+02


 SOLVING FOR HEAD 
                                                   Max.-Head-Change                        Max.-Flux-Residual
  Residual-Control   Outer-Iter.   Inner-Iter.     Column Row Layer    Max.-Head-Change    Column Row Layer    Max.-Flux-Residual            L2-New               L2-Old           Solver-Max-Delh
          0                 1           3            77   94     1      -0.9164846683E+00      77   94    1      -0.2213026972E+04      0.1060549028E+05      0.5453146318E+02     -0.9164846683E+00
          0                 2           2            77   94     1       0.7911856075E-01      77   94    1       0.2211920359E+03      0.1060261698E+04      0.1060549028E+05      0.7911856075E-01

    ------------------------------------------------
       NWT REQUIRED            2 OUTER ITERATIONS 
       AND A TOTAL OF          5 INNER ITERATIONS.
    ------------------------------------------------

 NO OUTPUT CONTROL FOR STRESS PERIOD    6   TIME STEP    7

 WELLS WITH REDUCED PUMPING FOR STRESS PERIOD     6 TIME STEP     7
   LAY   ROW   COL         APPL.Q          ACT.Q        GW-HEAD       CELL-BOT
     1    92    77  -0.230952E+04  -0.611032E+03  -0.848698E+02  -0.930000E+02


 SOLVING FOR HEAD 
                                                   Max.-Head-Change                        Max.-Flux-Residual
  Residual-Control   Outer-Iter.   Inner-Iter.     Column Row Layer    Max.-Head-Change    Column Row Layer    Max.-Flux-Residual            L2-New               L2-Old           Solver-Max-Delh
          0                 1           3            77   94     1      -0.9157890140E+00      77   94    1      -0.2211254839E+04      0.1036961255E+05      0.5301085593E+02     -0.9157890140E+00
          0                 2           2           317  172     1       0.8020487024E-01      77   94    1       0.2210149884E+03      0.1051589037E+04      0.1036961255E+05      0.8020487024E-01

    ------------------------------------------------
       NWT REQUIRED            2 OUTER ITERATIONS 
       AND A TOTAL OF          5 INNER ITERATIONS.
    ------------------------------------------------

 NO OUTPUT CONTROL FOR STRESS PERIOD    6   TIME STEP    8

 WELLS WITH REDUCED PUMPING FOR STRESS PERIOD     6 TIME STEP     8
   LAY   ROW   COL         APPL.Q          ACT.Q        GW-HEAD       CELL-BOT
     1    92    77  -0.230952E+04  -0.605471E+03  -0.849131E+02  -0.930000E+02


 SOLVING FOR HEAD 
                                                   Max.-Head-Change                        Max.-Flux-Residual
  Residual-Control   Outer-Iter.   Inner-Iter.     Column Row Layer    Max.-Head-Change    Column Row Layer    Max.-Flux-Residual            L2-New               L2-Old           Solver-Max-Delh
          0                 1           3            77   94     1      -0.9150941078E+00      77   94    1      -0.2209484723E+04      0.1017685671E+05      0.5257616369E+02     -0.9150941078E+00
          0                 2           2           205   76     1      -0.8719768734E-01      77   94    1       0.2208381421E+03      0.1018848312E+04      0.1017685671E+05     -0.8719768734E-01

    ------------------------------------------------
       NWT REQUIRED            2 OUTER ITERATIONS 
       AND A TOTAL OF          5 INNER ITERATIONS.
    ------------------------------------------------

 NO OUTPUT CONTROL FOR STRESS PERIOD    6   TIME STEP    9

 WELLS WITH REDUCED PUMPING FOR STRESS PERIOD     6 TIME STEP     9
   LAY   ROW   COL         APPL.Q          ACT.Q        GW-HEAD       CELL-BOT
     1    92    77  -0.230952E+04  -0.601973E+03  -0.849405E+02  -0.930000E+02


 SOLVING FOR HEAD 
                                                   Max.-Head-Change                        Max.-Flux-Residual
  Residual-Control   Outer-Iter.   Inner-Iter.     Column Row Layer    Max.-Head-Change    Column Row Layer    Max.-Flux-Residual            L2-New               L2-Old           Solver-Max-Delh
          0                 1           3            77   94     1      -0.9143999428E+00      77   94    1      -0.2207716605E+04      0.1001675761E+05      0.5100812169E+02     -0.9143999428E+00
          0                 2           2           317  172     1       0.8247679608E-01      77   94    1       0.2206614953E+03      0.1010606750E+04      0.1001675761E+05      0.8247679608E-01

    ------------------------------------------------
       NWT REQUIRED            2 OUTER ITERATIONS 
       AND A TOTAL OF          5 INNER ITERATIONS.
    ------------------------------------------------

 OUTPUT CONTROL FOR STRESS PERIOD    6   TIME STEP   10
    SAVE HEAD FOR ALL LAYERS

 WELLS WITH REDUCED PUMPING FOR STRESS PERIOD     6 TIME STEP    10
   LAY   ROW   COL         APPL.Q          ACT.Q        GW-HEAD       CELL-BOT
     1    92    77  -0.230952E+04  -0.599517E+03  -0.849597E+02  -0.930000E+02


 HEAD WILL BE SAVED ON UNIT   51 AT END OF TIME STEP   10, STRESS PERIOD    6
1
  VOLUMETRIC BUDGET FOR ENTIRE MODEL AT END OF TIME STEP   10, STRESS PERIOD   6
  ------------------------------------------------------------------------------

     CUMULATIVE VOLUMES      L**3       RATES FOR THIS TIME STEP      L**3/T
     ------------------                 ------------------------

           IN:                                      IN:
           ---                                      ---
             STORAGE =   119357424.0000               STORAGE =      464593.5000
       CONSTANT HEAD =     8467892.0000         CONSTANT HEAD =       48481.9922
               WELLS =           0.0000                 WELLS =           0.0000
              DRAINS =           0.0000                DRAINS =           0.0000
                  ET =           0.0000                    ET =           0.0000
            RECHARGE =    32105936.0000              RECHARGE =      217886.0469

            TOTAL IN =   159931248.0000              TOTAL IN =      730961.5625

          OUT:                                     OUT:
          ----                                     ----
             STORAGE =    62646844.0000               STORAGE =       64489.0078
       CONSTANT HEAD =           0.0000         CONSTANT HEAD =           0.0000
               WELLS =    65194952.0000                 WELLS =      498637.5000
              DRAINS =    19773772.0000                DRAINS =      108862.4688
                  ET =    12159500.0000                    ET =       56972.7773
            RECHARGE =       81860.0000              RECHARGE =           0.0000

           TOTAL OUT =   159856928.0000             TOTAL OUT =      728961.7500

            IN - OUT =       74320.0000              IN - OUT =        1999.8125

 PERCENT DISCREPANCY =           0.05     PERCENT DISCREPANCY =           0.27






         TIME SUMMARY AT END OF TIME STEP   10 IN STRESS PERIOD    6
                    SECONDS     MINUTES      HOURS       DAYS        YEARS
                    -----------------------------------------------------------
   TIME STEP LENGTH 2.62656E+05  4377.6      72.960      3.0400     8.32307E-03
 STRESS PERIOD TIME 2.62656E+06  43776.      729.60      30.400     8.32307E-02
         TOTAL TIME 1.57594E+07 2.62656E+05  4377.6      182.40     0.49938    
1
1
                            STRESS PERIOD NO.    7, LENGTH =   30.40000    
                            -----------------------------------------------

                              NUMBER OF TIME STEPS =    10

                               MULTIPLIER FOR DELT =     1.000

                            INITIAL TIME STEP SIZE =   3.040000    

 WELL NO.  LAYER   ROW   COL   STRESS RATE         
 --------------------------------------------------
      1      1     69    225      -518.4    
      2      1     71    224      -6048.    
      3      1     74    220      -6134.    
      4      1     73    220       0.000    
      5      1     71    223      -6221.    
      6      1     71    223      -7344.    
      7      1     72    223      -6394.    
      8      1     92    173      -6653.    
      9      1     94    174      -5875.    
     10      1     93    175       0.000    
     11      1    203    328      -5875.    
     12      1    438    460      -2073.    
     13      1    436    461      -2073.    
     14      1    410    454      -2073.    
     15      1    433    460      -2073.    
     16      1    431    462      -2073.    
     17      1    417    459      -2073.    
     18      1    418    458      -2073.    
     19      1    414    455      -2073.    
     20      1    443    464      -2073.    
     21      1    379    425      -2073.    
     22      1    362    405      -2073.    
     23      1    361    405      -2073.    
     24      1    362    406      -2073.    
     25      1    363    408      -2073.    
     26      1    364    410      -2073.    
     27      1    369    418      -2073.    
     28      1    367    417      -2073.    
     29      1    365    415      -2073.    
     30      1    402    447      -2073.    
     31      1    400    446      -2073.    
     32      1    392    444      -2073.    
     33      1    391    441      -2073.    
     34      1    403    448      -2073.    
     35      1    405    447      -2073.    
     36      1    362    410      -2073.    
     37      1    362    411      -2073.    
     38      1    363    412      -2073.    
     39      1    375    421      -2073.    
     40      1    383    430      -2073.    
     41      1    397    445      -2073.    
     42      1    360    403      -2073.    
     43      1    350    401      -2073.    
     44      1    346    393      -2477.    
     45      1    333    387      -2477.    
     46      1    328    384      -2477.    
     47      1    326    383      -2477.    
     48      1    323    378      -2477.    
     49      1    321    378      -2477.    
     50      1    322    376      -2477.    
     51      1    316    374      -2477.    
     52      1    311    371      -2477.    
     53      1    307    369      -2477.    
     54      1    305    368      -2477.    
     55      1    303    368      -2477.    
     56      1    300    369      -2477.    
     57      1    293    364      -2477.    
     58      1    292    362      -2477.    
     59      1    278    350      -2477.    
     60      1    274    351      -2477.    
     61      1    273    350      -2477.    
     62      1    271    350      -2477.    
     63      1    267    348      -2477.    
     64      1    263    348      -2477.    
     65      1    263    348      -2477.    
     66      1    248    347      -2477.    
     67      1    243    342      -2477.    
     68      1    242    339      -2477.    
     69      1    238    341      -2477.    
     70      1    233    340      -2477.    
     71      1    232    340      -2477.    
     72      1    229    341      -2477.    
     73      1    227    341      -2477.    
     74      1    219    342      -2477.    
     75      1    219    336      -2477.    
     76      1    199    329      -2477.    
     77      1    191    332      -3181.    
     78      1    190    332      -3181.    
     79      1    130    310      -3181.    
     80      1    123    305      -3181.    
     81      1    104    289      -3181.    
     82      1     96    287      -3788.    
     83      1     95    284      -3788.    
     84      1     95    280      -3788.    
     85      1     93    276      -3788.    
     86      1     94    275      -3788.    
     87      1     90    277      -3788.    
     88      1     90    273      -3788.    
     89      1     86    271      -3788.    
     90      1     85    270      -3788.    
     91      1     84    265      -3788.    
     92      1     85    265      -3788.    
     93      1     84    264      -3788.    
     94      1     79    263      -3788.    
     95      1     79    263      -3788.    
     96      1     76    262      -3788.    
     97      1     73    257      -3788.    
     98      1     74    255      -3788.    
     99      1     71    255      -3788.    
    100      1     66    253      -3788.    
    101      1     68    252      -3788.    
    102      1     69    250      -3788.    
    103      1     65    248      -3788.    
    104      1     68    248      -3788.    
    105      1     69    247      -3788.    
    106      1     73    247      -3788.    
    107      1     64    246      -3788.    
    108      1     69    245      -3788.    
    109      1     72    245      -3788.    
    110      1     69    241      -3788.    
    111      1     73    238      -3788.    
    112      1     70    238      -3788.    
    113      1     76    263      -3788.    
    114      1     66    232      -2343.    
    115      1     69    229      -2343.    
    116      1     71    228      -2343.    
    117      1     69    227      -2343.    
    118      1     72    219      -2343.    
    119      1     72    218      -2343.    
    120      1     72    218      -2343.    
    121      1     73    217      -2343.    
    122      1     77    219      -2343.    
    123      1     78    219      -2343.    
    124      1     83    213      -2343.    
    125      1     77    213      -2343.    
    126      1     81    211      -2343.    
    127      1     81    210      -2343.    
    128      1     81    210      -2343.    
    129      1     82    208      -2343.    
    130      1     80    205      -2343.    
    131      1     86    202      -2343.    
    132      1     84    200      -2343.    
    133      1     89    200      -2343.    
    134      1     89    199      -2343.    
    135      1     88    199      -2343.    
    136      1     86    199      -2343.    
    137      1     85    199      -2343.    
    138      1     82    197      -2343.    
    139      1     86    197      -2343.    
    140      1     88    198      -2343.    
    141      1     90    192      -2343.    
    142      1     89    191      -2343.    
    143      1     84    192      -2343.    
    144      1     91    189      -2343.    
    145      1     92    185      -2343.    
    146      1     87    183      -2343.    
    147      1     92    182      -2343.    
    148      1     90    182      -2343.    
    149      1     88    179      -2343.    
    150      1     89    176      -2343.    
    151      1     92    172      -2343.    
    152      1     93    164      -2343.    
    153      1     94    162      -2343.    
    154      1    103    156      -2343.    
    155      1    103    156      -2343.    
    156      1     96    154      -2343.    
    157      1     97    153      -2343.    
    158      1    122    139      -2343.    
    159      1     92     77      -2343.    
    160      1     94     77      -2343.    
    161      1     94     73      -2343.    
    162      1     97    152      -2343.    
    163      1    118    337      -666.7    
    164      1    133    319      -2678.    
    165      1    131    320      -3951.    
    166      1    133    321      -2956.    
    167      1    161    329      -2141.    
    168      1    178    330      -551.0    
    169      1    163    330      -1122.    
    170      1    131    320      -2473.    
    171      1    129    315      -3937.    
    172      1    162    329      -1959.    
    173      1    131    311      -826.1    
    174      1    221    340      -1994.    
    175      1    220    340      -1034.    
    176      1    221    340      -667.7    
    177      1    137    322      -2082.    
    178      1    137    321      -1407.    
    179      1    185    329      -2012.    
    180      1    183    329      -1473.    
    181      1    175    329      -585.3    
    182      1     79    243      -1490.    
    183      1     77    245      -2414.    
    184      1    199    329      -1617.    
    185      1    198    330      -2514.    
    186      1    140    328      -972.1    
    187      1    143    327      -863.6    
    188      1    139    327      -1331.    

    188 WELLS

 REUSING NON-PARAMETER DRAINS FROM LAST STRESS PERIOD

   1061 DRAINS

 REUSING SURF FROM LAST STRESS PERIOD

 REUSING EVTR FROM LAST STRESS PERIOD

 REUSING EXDP FROM LAST STRESS PERIOD



                           RECHARGE
 READING ON UNIT   19 WITH FORMAT: (510E15.6)          

 SOLVING FOR HEAD 
                                                   Max.-Head-Change                        Max.-Flux-Residual
  Residual-Control   Outer-Iter.   Inner-Iter.     Column Row Layer    Max.-Head-Change    Column Row Layer    Max.-Flux-Residual            L2-New               L2-Old           Solver-Max-Delh
          0                 1           3           263   79     1       0.2507363260E+01      77   94    1      -0.2239349794E+04      0.1339892541E+05      0.5052210760E+02      0.2507363260E+01
          0                 2           3           231   53     1       0.7177930181E+00      77   94    1       0.2238216467E+03      0.1344047046E+04      0.1339892541E+05      0.7177930181E+00
          0                 3           2           231   53     1       0.5618905234E+00      77   94    1       0.1119023195E+02      0.6723128248E+02      0.1344047046E+04      0.5618905234E+00
          0                 4           2           231   53     1       0.4334741460E+00      77   94    1       0.5593974152E+00      0.3360973814E+01      0.6723128248E+02      0.4334741460E+00
          0                 5           2           231   53     1       0.3345938824E+00      77   94    1       0.2795866912E-01      0.1680789445E+00      0.3360973814E+01      0.3345938824E+00
          0                 6           2           231   53     1       0.2585156683E+00     231   53    1       0.3992174126E-02      0.9573632264E-02      0.1680789445E+00      0.2585156683E+00
          0                 7           2           231   53     1       0.1998541406E+00     231   53    1       0.3093565406E-02      0.3776422488E-02      0.9573632264E-02      0.1998541406E+00
          0                 8           2           231   53     1       0.1545466458E+00     231   53    1       0.2397668995E-02      0.3122840358E-02      0.3776422488E-02      0.1545466458E+00
          0                 9           2           231   53     1       0.1196033492E+00     231   53    1       0.1858799593E-02      0.2665999093E-02      0.3122840358E-02      0.1196033492E+00
          0                10           2           231   53     1       0.9261604737E-01     457  456    1       0.1443518761E-02      0.2343111768E-02      0.2665999093E-02      0.9261604737E-01

    ------------------------------------------------
       NWT REQUIRED           10 OUTER ITERATIONS 
       AND A TOTAL OF         22 INNER ITERATIONS.
    ------------------------------------------------

 NO OUTPUT CONTROL FOR STRESS PERIOD    7   TIME STEP    1

 WELLS WITH REDUCED PUMPING FOR STRESS PERIOD     7 TIME STEP     1
   LAY   ROW   COL         APPL.Q          ACT.Q        GW-HEAD       CELL-BOT
     1    92    77  -0.234339E+04  -0.602330E+03  -0.850058E+02  -0.930000E+02


 SOLVING FOR HEAD 
                                                   Max.-Head-Change                        Max.-Flux-Residual
  Residual-Control   Outer-Iter.   Inner-Iter.     Column Row Layer    Max.-Head-Change    Column Row Layer    Max.-Flux-Residual            L2-New               L2-Old           Solver-Max-Delh
          0                 1           3            77   94     1      -0.9268406336E+00      77   94    1      -0.2237566819E+04      0.1086807002E+05      0.2343111768E-02     -0.9268406336E+00
          0                 2           2            77   94     1       0.8001219722E-01      77   94    1       0.2236435086E+03      0.1088464213E+04      0.1086807002E+05      0.8001219722E-01

    ------------------------------------------------
       NWT REQUIRED            2 OUTER ITERATIONS 
       AND A TOTAL OF          5 INNER ITERATIONS.
    ------------------------------------------------

 NO OUTPUT CONTROL FOR STRESS PERIOD    7   TIME STEP    2

 WELLS WITH REDUCED PUMPING FOR STRESS PERIOD     7 TIME STEP     2
   LAY   ROW   COL         APPL.Q          ACT.Q        GW-HEAD       CELL-BOT
     1    92    77  -0.234339E+04  -0.598659E+03  -0.850342E+02  -0.930000E+02


 SOLVING FOR HEAD 
                                                   Max.-Head-Change                        Max.-Flux-Residual
  Residual-Control   Outer-Iter.   Inner-Iter.     Column Row Layer    Max.-Head-Change    Column Row Layer    Max.-Flux-Residual            L2-New               L2-Old           Solver-Max-Delh
          0                 1           3            77   94     1      -0.9261383733E+00      77   94    1      -0.2235776990E+04      0.1029718038E+05      0.5442912880E+02     -0.9261383733E+00
          0                 2           2           203   76     1      -0.9517196054E-01      77   94    1       0.2234646906E+03      0.1031346891E+04      0.1029718038E+05     -0.9517196054E-01

    ------------------------------------------------
       NWT REQUIRED            2 OUTER ITERATIONS 
       AND A TOTAL OF          5 INNER ITERATIONS.
    ------------------------------------------------

 NO OUTPUT CONTROL FOR STRESS PERIOD    7   TIME STEP    3

 WELLS WITH REDUCED PUMPING FOR STRESS PERIOD     7 TIME STEP     3
   LAY   ROW   COL         APPL.Q          ACT.Q        GW-HEAD       CELL-BOT
     1    92    77  -0.234339E+04  -0.596171E+03  -0.850535E+02  -0.930000E+02


 SOLVING FOR HEAD 
                                                   Max.-Head-Change                        Max.-Flux-Residual
  Residual-Control   Outer-Iter.   Inner-Iter.     Column Row Layer    Max.-Head-Change    Column Row Layer    Max.-Flux-Residual            L2-New               L2-Old           Solver-Max-Delh
          0                 1           3            77   94     1      -0.9254368240E+00      77   94    1      -0.2233989087E+04      0.1000975654E+05      0.5156903048E+02     -0.9254368240E+00
          0                 2           2           317  172     1       0.8546755751E-01      77   94    1       0.2232860673E+03      0.1011893939E+04      0.1000975654E+05      0.8546755751E-01

    ------------------------------------------------
       NWT REQUIRED            2 OUTER ITERATIONS 
       AND A TOTAL OF          5 INNER ITERATIONS.
    ------------------------------------------------

 NO OUTPUT CONTROL FOR STRESS PERIOD    7   TIME STEP    4

 WELLS WITH REDUCED PUMPING FOR STRESS PERIOD     7 TIME STEP     4
   LAY   ROW   COL         APPL.Q          ACT.Q        GW-HEAD       CELL-BOT
     1    92    77  -0.234339E+04  -0.594284E+03  -0.850682E+02  -0.930000E+02


 SOLVING FOR HEAD 
                                                   Max.-Head-Change                        Max.-Flux-Residual
  Residual-Control   Outer-Iter.   Inner-Iter.     Column Row Layer    Max.-Head-Change    Column Row Layer    Max.-Flux-Residual            L2-New               L2-Old           Solver-Max-Delh
          0                 1           3            77   94     1      -0.9247359803E+00      77   94    1      -0.2232203097E+04      0.9819386915E+04      0.5060090108E+02     -0.9247359803E+00
          0                 2           2           317  172     1       0.8695586405E-01      77   94    1       0.2231076354E+03      0.9863940543E+03      0.9819386915E+04      0.8695586405E-01

    ------------------------------------------------
       NWT REQUIRED            2 OUTER ITERATIONS 
       AND A TOTAL OF          5 INNER ITERATIONS.
    ------------------------------------------------

 NO OUTPUT CONTROL FOR STRESS PERIOD    7   TIME STEP    5

 WELLS WITH REDUCED PUMPING FOR STRESS PERIOD     7 TIME STEP     5
   LAY   ROW   COL         APPL.Q          ACT.Q        GW-HEAD       CELL-BOT
     1    92    77  -0.234339E+04  -0.592710E+03  -0.850804E+02  -0.930000E+02


 SOLVING FOR HEAD 
                                                   Max.-Head-Change                        Max.-Flux-Residual
  Residual-Control   Outer-Iter.   Inner-Iter.     Column Row Layer    Max.-Head-Change    Column Row Layer    Max.-Flux-Residual            L2-New               L2-Old           Solver-Max-Delh
          0                 1           3            77   94     1      -0.9240359055E+00      77   94    1      -0.2230419171E+04      0.9673161441E+04      0.4931942536E+02     -0.9240359055E+00
          0                 2           2           317  172     1       0.8760075163E-01      77   94    1       0.2229294113E+03      0.9671173049E+03      0.9673161441E+04      0.8760075163E-01

    ------------------------------------------------
       NWT REQUIRED            2 OUTER ITERATIONS 
       AND A TOTAL OF          5 INNER ITERATIONS.
    ------------------------------------------------

 NO OUTPUT CONTROL FOR STRESS PERIOD    7   TIME STEP    6

 WELLS WITH REDUCED PUMPING FOR STRESS PERIOD     7 TIME STEP     6
   LAY   ROW   COL         APPL.Q          ACT.Q        GW-HEAD       CELL-BOT
     1    92    77  -0.234339E+04  -0.591304E+03  -0.850913E+02  -0.930000E+02


 SOLVING FOR HEAD 
                                                   Max.-Head-Change                        Max.-Flux-Residual
  Residual-Control   Outer-Iter.   Inner-Iter.     Column Row Layer    Max.-Head-Change    Column Row Layer    Max.-Flux-Residual            L2-New               L2-Old           Solver-Max-Delh
          0                 1           3            77   94     1      -0.9233365596E+00      77   94    1      -0.2228637214E+04      0.9551744463E+04      0.4835559621E+02     -0.9233365596E+00
          0                 2           2           317  172     1       0.8830509541E-01      77   94    1       0.2227513837E+03      0.9556694570E+03      0.9551744463E+04      0.8830509541E-01

    ------------------------------------------------
       NWT REQUIRED            2 OUTER ITERATIONS 
       AND A TOTAL OF          5 INNER ITERATIONS.
    ------------------------------------------------

 NO OUTPUT CONTROL FOR STRESS PERIOD    7   TIME STEP    7

 WELLS WITH REDUCED PUMPING FOR STRESS PERIOD     7 TIME STEP     7
   LAY   ROW   COL         APPL.Q          ACT.Q        GW-HEAD       CELL-BOT
     1    92    77  -0.234339E+04  -0.589995E+03  -0.851015E+02  -0.930000E+02


 SOLVING FOR HEAD 
                                                   Max.-Head-Change                        Max.-Flux-Residual
  Residual-Control   Outer-Iter.   Inner-Iter.     Column Row Layer    Max.-Head-Change    Column Row Layer    Max.-Flux-Residual            L2-New               L2-Old           Solver-Max-Delh
          0                 1           3            77   94     1      -0.9226379711E+00      77   94    1      -0.2226857295E+04      0.9446763842E+04      0.4778944427E+02     -0.9226379711E+00
          0                 2           2           235   99     1       0.4168622403E+00      77   94    1       0.2225735598E+03      0.9446895089E+03      0.9446763842E+04      0.4168622403E+00
          0                 3           2           235   99     1       0.3283624136E+00      77   94    1       0.1112786962E+02      0.4723291734E+02      0.9446895089E+03      0.3283624136E+00
          0                 4           2           235   99     1       0.2584688807E+00      77   94    1       0.5562814879E+00      0.2361179541E+01      0.4723291734E+02      0.2584688807E+00
          0                 5           2           235   99     1       0.2035810681E+00      77   94    1       0.2780301226E-01      0.1180919634E+00      0.2361179541E+01      0.2035810681E+00
          0                 6           2           235   99     1       0.1604379692E+00     235   99    1       0.2437424443E-02      0.6997157307E-02      0.1180919634E+00      0.1604379692E+00
          0                 7           2           235   99     1       0.1264941250E+00     235   99    1       0.1924337727E-02      0.3337167971E-02      0.6997157307E-02      0.1264941250E+00
          0                 8           2           316  173     1       0.1122845016E+00     457  456    1       0.1730854526E-02      0.3000517732E-02      0.3337167971E-02      0.1122845016E+00
          0                 9           2           316  173     1       0.1062259601E+00     457  456    1       0.1730556168E-02      0.2765703559E-02      0.3000517732E-02      0.1062259601E+00
          0                10           2           316  173     1       0.1004997212E+00     457  456    1       0.1730257883E-02      0.2595760290E-02      0.2765703559E-02      0.1004997212E+00
          0                11           2           316  173     1       0.9508698249E-01     457  456    1       0.1729959662E-02      0.2472032284E-02      0.2595760290E-02      0.9508698249E-01

    ------------------------------------------------
       NWT REQUIRED           11 OUTER ITERATIONS 
       AND A TOTAL OF         23 INNER ITERATIONS.
    ------------------------------------------------

 NO OUTPUT CONTROL FOR STRESS PERIOD    7   TIME STEP    8

 WELLS WITH REDUCED PUMPING FOR STRESS PERIOD     7 TIME STEP     8
   LAY   ROW   COL         APPL.Q          ACT.Q        GW-HEAD       CELL-BOT
     1    92    77  -0.234339E+04  -0.588753E+03  -0.851112E+02  -0.930000E+02


 SOLVING FOR HEAD 
                                                   Max.-Head-Change                        Max.-Flux-Residual
  Residual-Control   Outer-Iter.   Inner-Iter.     Column Row Layer    Max.-Head-Change    Column Row Layer    Max.-Flux-Residual            L2-New               L2-Old           Solver-Max-Delh
          0                 1           3            77   94     1      -0.9219435995E+00      77   94    1      -0.2225088225E+04      0.9352249803E+04      0.2472032284E-02     -0.9219435995E+00
          0                 2           2           316  173     1       0.2430372386E+00      77   94    1       0.2223968215E+03      0.9350655372E+03      0.9352249803E+04      0.2430372386E+00
          0                 3           2           316  173     1       0.2007728231E+00      77   94    1       0.1111903043E+02      0.4675346295E+02      0.9350655372E+03      0.2007728231E+00
          0                 4           2           316  173     1       0.1638161628E+00      77   94    1       0.5558394366E+00      0.2337295406E+01      0.4675346295E+02      0.1638161628E+00
          0                 5           2           316  173     1       0.1336242887E+00      77   94    1       0.2778090936E-01      0.1171263445E+00      0.2337295406E+01      0.1336242887E+00
          0                 6           2           316  173     1       0.1090252331E+00     457  456    1       0.1777369172E-02      0.6642431822E-02      0.1171263445E+00      0.1090252331E+00
          0                 7           2           316  173     1       0.8897429611E-01     457  456    1       0.1777053985E-02      0.2492239546E-02      0.6642431822E-02      0.8897429611E-01

    ------------------------------------------------
       NWT REQUIRED            7 OUTER ITERATIONS 
       AND A TOTAL OF         15 INNER ITERATIONS.
    ------------------------------------------------

 NO OUTPUT CONTROL FOR STRESS PERIOD    7   TIME STEP    9

 WELLS WITH REDUCED PUMPING FOR STRESS PERIOD     7 TIME STEP     9
   LAY   ROW   COL         APPL.Q          ACT.Q        GW-HEAD       CELL-BOT
     1    92    77  -0.234339E+04  -0.587553E+03  -0.851205E+02  -0.930000E+02


 SOLVING FOR HEAD 
                                                   Max.-Head-Change                        Max.-Flux-Residual
  Residual-Control   Outer-Iter.   Inner-Iter.     Column Row Layer    Max.-Head-Change    Column Row Layer    Max.-Flux-Residual            L2-New               L2-Old           Solver-Max-Delh
          0                 1           3           317  171     1       0.9714878477E+00      77   94    1      -0.2223321093E+04      0.9265113420E+04      0.2492239546E-02      0.9714878477E+00
          0                 2           2           317  171     1       0.6445600535E+00      77   94    1       0.2222202751E+03      0.9264400733E+03      0.9265113420E+04      0.6445600535E+00
          0                 3           2           317  171     1       0.8156761667E+00      77   94    1       0.1111020368E+02      0.4632168221E+02      0.9264400733E+03      0.8156761667E+00
          0                 4           2           317  171     1       0.7397736836E+00      77   94    1       0.5553981644E+00      0.2315665585E+01      0.4632168221E+02      0.7397736836E+00
          0                 5           2           317  171     1       0.6569344175E+00      77   94    1       0.2775885332E-01      0.1164271465E+00      0.2315665585E+01      0.6569344175E+00
          0                 6           2           317  171     1       0.5829292748E+00     317  171    1       0.8071637145E-02      0.1273422727E-01      0.1164271465E+00      0.5829292748E+00
          0                 7           2           317  171     1       0.5173679985E+00     317  171    1       0.7199122271E-02      0.1016429968E-01      0.1273422727E-01      0.5173679985E+00
          0                 8           2           317  171     1       0.4592943529E+00     317  171    1       0.6419949347E-02      0.9105086362E-02      0.1016429968E-01      0.4592943529E+00
          0                 9           2           317  171     1       0.4078300030E+00     317  171    1       0.5723559463E-02      0.8167858319E-02      0.9105086362E-02      0.4078300030E+00
          0                10           2           317  171     1       0.3622011048E+00     317  171    1       0.5101338709E-02      0.7337028900E-02      0.8167858319E-02      0.3622011048E+00
                                                   Max.-Head-Change                        Max.-Flux-Residual
  Residual-Control   Outer-Iter.   Inner-Iter.     Column Row Layer    Max.-Head-Change    Column Row Layer    Max.-Flux-Residual            L2-New               L2-Old           Solver-Max-Delh
          0                11           2           317  171     1       0.3217292035E+00     317  171    1       0.4545639024E-02      0.6602070931E-02      0.7337028900E-02      0.3217292035E+00
          0                12           2           317  171     1       0.2858188516E+00     317  171    1       0.4049568970E-02      0.5953522208E-02      0.6602070931E-02      0.2858188516E+00
          0                13           2           317  171     1       0.2539464875E+00     317  171    1       0.3606910586E-02      0.5382877056E-02      0.5953522208E-02      0.2539464875E+00
          0                14           2           317  171     1       0.2256509722E+00     317  171    1       0.3212059040E-02      0.4882471443E-02      0.5382877056E-02      0.2256509722E+00
          0                15           2           317  171     1       0.2005255607E+00     317  171    1       0.2859968661E-02      0.4445373471E-02      0.4882471443E-02      0.2005255607E+00
          0                16           2           317  171     1       0.1782110520E+00     317  171    1       0.2546102791E-02      0.4065281549E-02      0.4445373471E-02      0.1782110520E+00
          0                17           2           317  171     1       0.1583899119E+00     317  171    1       0.2266387090E-02      0.3736431042E-02      0.4065281549E-02      0.1583899119E+00
          0                18           2           317  171     1       0.1407812024E+00     317  171    1       0.2017166214E-02      0.3453511238E-02      0.3736431042E-02      0.1407812024E+00
          0                19           2           317  171     1       0.1251361876E+00     457  456    1       0.1822018723E-02      0.3211595896E-02      0.3453511238E-02      0.1251361876E+00
          0                20           2           317  171     1       0.1112345110E+00     457  456    1       0.1821686476E-02      0.3006090584E-02      0.3211595896E-02      0.1112345110E+00
          0                21           2           317  171     1       0.9888085818E-01     457  456    1       0.1821354292E-02      0.2832698917E-02      0.3006090584E-02      0.9888085818E-01

    ------------------------------------------------
       NWT REQUIRED           21 OUTER ITERATIONS 
       AND A TOTAL OF         43 INNER ITERATIONS.
    ------------------------------------------------

 OUTPUT CONTROL FOR STRESS PERIOD    7   TIME STEP   10
    SAVE HEAD FOR ALL LAYERS

 WELLS WITH REDUCED PUMPING FOR STRESS PERIOD     7 TIME STEP    10
   LAY   ROW   COL         APPL.Q          ACT.Q        GW-HEAD       CELL-BOT
     1    92    77  -0.234339E+04  -0.586385E+03  -0.851296E+02  -0.930000E+02


 HEAD WILL BE SAVED ON UNIT   51 AT END OF TIME STEP   10, STRESS PERIOD    7
1
  VOLUMETRIC BUDGET FOR ENTIRE MODEL AT END OF TIME STEP   10, STRESS PERIOD   7
  ------------------------------------------------------------------------------

     CUMULATIVE VOLUMES      L**3       RATES FOR THIS TIME STEP      L**3/T
     ------------------                 ------------------------

           IN:                                      IN:
           ---                                      ---
             STORAGE =   131315072.0000               STORAGE =      384585.9688
       CONSTANT HEAD =     9945619.0000         CONSTANT HEAD =       48710.2930
               WELLS =           0.0000                 WELLS =           0.0000
              DRAINS =           0.0000                DRAINS =           0.0000
                  ET =           0.0000                    ET =           0.0000
            RECHARGE =    40928256.0000              RECHARGE =      290207.9375

            TOTAL IN =   182188944.0000              TOTAL IN =      723504.1875

          OUT:                                     OUT:
          ----                                     ----
             STORAGE =    66305116.0000               STORAGE =      113017.4062
       CONSTANT HEAD =           0.0000         CONSTANT HEAD =           0.0000
               WELLS =    78758624.0000                 WELLS =      446167.0938
              DRAINS =    23102550.0000                DRAINS =      110289.8438
                  ET =    13841589.0000                    ET =       54029.8438
            RECHARGE =       81860.0000              RECHARGE =           0.0000

           TOTAL OUT =   182089728.0000             TOTAL OUT =      723504.2500

            IN - OUT =       99216.0000              IN - OUT =      -6.2500E-02

 PERCENT DISCREPANCY =           0.05     PERCENT DISCREPANCY =          -0.00






         TIME SUMMARY AT END OF TIME STEP   10 IN STRESS PERIOD    7
                    SECONDS     MINUTES      HOURS       DAYS        YEARS
                    -----------------------------------------------------------
   TIME STEP LENGTH 2.62656E+05  4377.6      72.960      3.0400     8.32307E-03
 STRESS PERIOD TIME 2.62656E+06  43776.      729.60      30.400     8.32307E-02
         TOTAL TIME 1.83859E+07 3.06432E+05  5107.2      212.80     0.58261    
1
1
                            STRESS PERIOD NO.    8, LENGTH =   30.40000    
                            -----------------------------------------------

                              NUMBER OF TIME STEPS =    10

                               MULTIPLIER FOR DELT =     1.000

                            INITIAL TIME STEP SIZE =   3.040000    

 WELL NO.  LAYER   ROW   COL   STRESS RATE         
 --------------------------------------------------
      1      1     69    225      -604.8    
      2      1     71    224      -6048.    
      3      1     74    220      -6134.    
      4      1     73    220       0.000    
      5      1     71    223      -6221.    
      6      1     71    223      -7344.    
      7      1     72    223      -6394.    
      8      1     92    173      -6653.    
      9      1     94    174      -5875.    
     10      1     93    175       0.000    
     11      1    203    328      -5875.    
     12      1    438    460      -0.000    
     13      1    436    461      -0.000    
     14      1    410    454      -0.000    
     15      1    433    460      -0.000    
     16      1    431    462      -0.000    
     17      1    417    459      -0.000    
     18      1    418    458      -0.000    
     19      1    414    455      -0.000    
     20      1    443    464      -0.000    
     21      1    379    425      -0.000    
     22      1    362    405      -0.000    
     23      1    361    405      -0.000    
     24      1    362    406      -0.000    
     25      1    363    408      -0.000    
     26      1    364    410      -0.000    
     27      1    369    418      -0.000    
     28      1    367    417      -0.000    
     29      1    365    415      -0.000    
     30      1    402    447      -0.000    
     31      1    400    446      -0.000    
     32      1    392    444      -0.000    
     33      1    391    441      -0.000    
     34      1    403    448      -0.000    
     35      1    405    447      -0.000    
     36      1    362    410      -0.000    
     37      1    362    411      -0.000    
     38      1    363    412      -0.000    
     39      1    375    421      -0.000    
     40      1    383    430      -0.000    
     41      1    397    445      -0.000    
     42      1    360    403      -0.000    
     43      1    350    401      -0.000    
     44      1    346    393      -49.88    
     45      1    333    387      -49.88    
     46      1    328    384      -49.88    
     47      1    326    383      -49.88    
     48      1    323    378      -49.88    
     49      1    321    378      -49.88    
     50      1    322    376      -49.88    
     51      1    316    374      -49.88    
     52      1    311    371      -49.88    
     53      1    307    369      -49.88    
     54      1    305    368      -49.88    
     55      1    303    368      -49.88    
     56      1    300    369      -49.88    
     57      1    293    364      -49.88    
     58      1    292    362      -49.88    
     59      1    278    350      -49.88    
     60      1    274    351      -49.88    
     61      1    273    350      -49.88    
     62      1    271    350      -49.88    
     63      1    267    348      -49.88    
     64      1    263    348      -49.88    
     65      1    263    348      -49.88    
     66      1    248    347      -49.88    
     67      1    243    342      -49.88    
     68      1    242    339      -49.88    
     69      1    238    341      -49.88    
     70      1    233    340      -49.88    
     71      1    232    340      -49.88    
     72      1    229    341      -49.88    
     73      1    227    341      -49.88    
     74      1    219    342      -49.88    
     75      1    219    336      -49.88    
     76      1    199    329      -49.88    
     77      1    191    332      -0.000    
     78      1    190    332      -0.000    
     79      1    130    310      -0.000    
     80      1    123    305      -0.000    
     81      1    104    289      -0.000    
     82      1     96    287      -510.6    
     83      1     95    284      -510.6    
     84      1     95    280      -510.6    
     85      1     93    276      -510.6    
     86      1     94    275      -510.6    
     87      1     90    277      -510.6    
     88      1     90    273      -510.6    
     89      1     86    271      -510.6    
     90      1     85    270      -510.6    
     91      1     84    265      -510.6    
     92      1     85    265      -510.6    
     93      1     84    264      -510.6    
     94      1     79    263      -510.6    
     95      1     79    263      -510.6    
     96      1     76    262      -510.6    
     97      1     73    257      -510.6    
     98      1     74    255      -510.6    
     99      1     71    255      -510.6    
    100      1     66    253      -510.6    
    101      1     68    252      -510.6    
    102      1     69    250      -510.6    
    103      1     65    248      -510.6    
    104      1     68    248      -510.6    
    105      1     69    247      -510.6    
    106      1     73    247      -510.6    
    107      1     64    246      -510.6    
    108      1     69    245      -510.6    
    109      1     72    245      -510.6    
    110      1     69    241      -510.6    
    111      1     73    238      -510.6    
    112      1     70    238      -510.6    
    113      1     76    263      -510.6    
    114      1     66    232      -620.9    
    115      1     69    229      -620.9    
    116      1     71    228      -620.9    
    117      1     69    227      -620.9    
    118      1     72    219      -620.9    
    119      1     72    218      -620.9    
    120      1     72    218      -620.9    
    121      1     73    217      -620.9    
    122      1     77    219      -620.9    
    123      1     78    219      -620.9    
    124      1     83    213      -620.9    
    125      1     77    213      -620.9    
    126      1     81    211      -620.9    
    127      1     81    210      -620.9    
    128      1     81    210      -620.9    
    129      1     82    208      -620.9    
    130      1     80    205      -620.9    
    131      1     86    202      -620.9    
    132      1     84    200      -620.9    
    133      1     89    200      -620.9    
    134      1     89    199      -620.9    
    135      1     88    199      -620.9    
    136      1     86    199      -620.9    
    137      1     85    199      -620.9    
    138      1     82    197      -620.9    
    139      1     86    197      -620.9    
    140      1     88    198      -620.9    
    141      1     90    192      -620.9    
    142      1     89    191      -620.9    
    143      1     84    192      -620.9    
    144      1     91    189      -620.9    
    145      1     92    185      -620.9    
    146      1     87    183      -620.9    
    147      1     92    182      -620.9    
    148      1     90    182      -620.9    
    149      1     88    179      -620.9    
    150      1     89    176      -620.9    
    151      1     92    172      -620.9    
    152      1     93    164      -620.9    
    153      1     94    162      -620.9    
    154      1    103    156      -620.9    
    155      1    103    156      -620.9    
    156      1     96    154      -620.9    
    157      1     97    153      -620.9    
    158      1    122    139      -620.9    
    159      1     92     77      -620.9    
    160      1     94     77      -620.9    
    161      1     94     73      -620.9    
    162      1     97    152      -620.9    
    163      1    118    337      -666.7    
    164      1    133    319      -2678.    
    165      1    131    320      -3951.    
    166      1    133    321      -2956.    
    167      1    161    329      -2141.    
    168      1    178    330      -551.0    
    169      1    163    330      -1122.    
    170      1    131    320      -2473.    
    171      1    129    315      -3937.    
    172      1    162    329      -1959.    
    173      1    131    311      -826.1    
    174      1    221    340      -1994.    
    175      1    220    340      -1034.    
    176      1    221    340      -667.7    
    177      1    137    322      -2082.    
    178      1    137    321      -1407.    
    179      1    185    329      -2012.    
    180      1    183    329      -1473.    
    181      1    175    329      -585.3    
    182      1     79    243      -1490.    
    183      1     77    245      -2414.    
    184      1    199    329      -1617.    
    185      1    198    330      -2514.    
    186      1    140    328      -972.1    
    187      1    143    327      -863.6    
    188      1    139    327      -1331.    

    188 WELLS

 REUSING NON-PARAMETER DRAINS FROM LAST STRESS PERIOD

   1061 DRAINS

 REUSING SURF FROM LAST STRESS PERIOD

 REUSING EVTR FROM LAST STRESS PERIOD

 REUSING EXDP FROM LAST STRESS PERIOD



                           RECHARGE
 READING ON UNIT   19 WITH FORMAT: (510E15.6)          

 SOLVING FOR HEAD 
                                                   Max.-Head-Change                        Max.-Flux-Residual
  Residual-Control   Outer-Iter.   Inner-Iter.     Column Row Layer    Max.-Head-Change    Column Row Layer    Max.-Flux-Residual            L2-New               L2-Old           Solver-Max-Delh
          0                 1           3           263   79     1       0.1804720475E+02     263   79    1       0.6517310851E+04      0.2883061876E+05      0.2832698917E-02      0.1804720475E+02
          0                 2           2           263   79     1      -0.1713402674E+01     263   79    1      -0.7392713572E+03      0.2998264002E+04      0.2883061876E+05     -0.1713402674E+01
          0                 3           2           317  171     1       0.1076620449E+00     263   79    1      -0.3768988255E+02      0.1496971181E+03      0.2998264002E+04      0.1076620449E+00
          0                 4           2           317  171     1       0.7829725270E-01     263   79    1      -0.1885983237E+01      0.7485722147E+01      0.1496971181E+03      0.7829725270E-01

    ------------------------------------------------
       NWT REQUIRED            4 OUTER ITERATIONS 
       AND A TOTAL OF          9 INNER ITERATIONS.
    ------------------------------------------------

 NO OUTPUT CONTROL FOR STRESS PERIOD    8   TIME STEP    1

 WELLS WITH REDUCED PUMPING FOR STRESS PERIOD     8 TIME STEP     1
   LAY   ROW   COL         APPL.Q          ACT.Q        GW-HEAD       CELL-BOT
     1    92    77  -0.620891E+03  -0.240058E+03  -0.827841E+02  -0.930000E+02


 SOLVING FOR HEAD 
                                                   Max.-Head-Change                        Max.-Flux-Residual
  Residual-Control   Outer-Iter.   Inner-Iter.     Column Row Layer    Max.-Head-Change    Column Row Layer    Max.-Flux-Residual            L2-New               L2-Old           Solver-Max-Delh
          0                 1           3           263   79     1       0.6935556054E+01     156  103    1       0.2495581254E+04      0.1395135857E+05      0.7485722147E+01      0.6935556054E+01
          0                 2           2           263   79     1      -0.6335297196E+00     263   79    1      -0.2560834523E+03      0.1404828832E+04      0.1395135857E+05     -0.6335297196E+00
          0                 3           2           263   79     1      -0.3206035696E-01     263   79    1      -0.1295999123E+02      0.7040277745E+02      0.1404828832E+04     -0.3206035696E-01

    ------------------------------------------------
       NWT REQUIRED            3 OUTER ITERATIONS 
       AND A TOTAL OF          7 INNER ITERATIONS.
    ------------------------------------------------

 NO OUTPUT CONTROL FOR STRESS PERIOD    8   TIME STEP    2

 WELLS WITH REDUCED PUMPING FOR STRESS PERIOD     8 TIME STEP     2
   LAY   ROW   COL         APPL.Q          ACT.Q        GW-HEAD       CELL-BOT
     1    92    77  -0.620891E+03  -0.308074E+03  -0.810097E+02  -0.930000E+02


 SOLVING FOR HEAD 
                                                   Max.-Head-Change                        Max.-Flux-Residual
  Residual-Control   Outer-Iter.   Inner-Iter.     Column Row Layer    Max.-Head-Change    Column Row Layer    Max.-Flux-Residual            L2-New               L2-Old           Solver-Max-Delh
          0                 1           3           263   79     1       0.2929843284E+01     156  103    1       0.2004813485E+04      0.1139513038E+05      0.7040277745E+02      0.2929843284E+01
          0                 2           2           263   79     1      -0.2558157159E+00     156  103    1      -0.2005757146E+03      0.1146646104E+04      0.1139513038E+05     -0.2558157159E+00
          0                 3           2           263   79     1      -0.1287409781E-01     156  103    1      -0.1002948468E+02      0.5742394421E+02      0.1146646104E+04     -0.1287409781E-01

    ------------------------------------------------
       NWT REQUIRED            3 OUTER ITERATIONS 
       AND A TOTAL OF          7 INNER ITERATIONS.
    ------------------------------------------------

 NO OUTPUT CONTROL FOR STRESS PERIOD    8   TIME STEP    3

 WELLS WITH REDUCED PUMPING FOR STRESS PERIOD     8 TIME STEP     3
   LAY   ROW   COL         APPL.Q          ACT.Q        GW-HEAD       CELL-BOT
     1    92    77  -0.620891E+03  -0.359669E+03  -0.796696E+02  -0.930000E+02


 SOLVING FOR HEAD 
                                                   Max.-Head-Change                        Max.-Flux-Residual
  Residual-Control   Outer-Iter.   Inner-Iter.     Column Row Layer    Max.-Head-Change    Column Row Layer    Max.-Flux-Residual            L2-New               L2-Old           Solver-Max-Delh
          0                 1           3           263   79     1       0.1409499321E+01     156  103    1       0.1623064859E+04      0.1022504924E+05      0.5742394421E+02      0.1409499321E+01
          0                 2           2           263   79     1      -0.1233331343E+00     156  103    1      -0.1623885903E+03      0.1024725278E+04      0.1022504924E+05     -0.1233331343E+00
          0                 3           2           457  456     1       0.8461269825E-02     156  103    1      -0.8120037941E+01      0.5123615693E+02      0.1024725278E+04      0.8461269825E-02

    ------------------------------------------------
       NWT REQUIRED            3 OUTER ITERATIONS 
       AND A TOTAL OF          7 INNER ITERATIONS.
    ------------------------------------------------

 NO OUTPUT CONTROL FOR STRESS PERIOD    8   TIME STEP    4

 WELLS WITH REDUCED PUMPING FOR STRESS PERIOD     8 TIME STEP     4
   LAY   ROW   COL         APPL.Q          ACT.Q        GW-HEAD       CELL-BOT
     1    92    77  -0.620891E+03  -0.398013E+03  -0.786543E+02  -0.930000E+02


 SOLVING FOR HEAD 
                                                   Max.-Head-Change                        Max.-Flux-Residual
  Residual-Control   Outer-Iter.   Inner-Iter.     Column Row Layer    Max.-Head-Change    Column Row Layer    Max.-Flux-Residual            L2-New               L2-Old           Solver-Max-Delh
          0                 1           3           264   78     1       0.1027461625E+01     383  326    1       0.1426276530E+04      0.9520620029E+04      0.5123615693E+02      0.1027461625E+01
          0                 2           2           264   78     1      -0.9004415688E-01     383  326    1      -0.1426970264E+03      0.9524296303E+03      0.9520620029E+04     -0.9004415688E-01

    ------------------------------------------------
       NWT REQUIRED            2 OUTER ITERATIONS 
       AND A TOTAL OF          5 INNER ITERATIONS.
    ------------------------------------------------

 NO OUTPUT CONTROL FOR STRESS PERIOD    8   TIME STEP    5

 WELLS WITH REDUCED PUMPING FOR STRESS PERIOD     8 TIME STEP     5
   LAY   ROW   COL         APPL.Q          ACT.Q        GW-HEAD       CELL-BOT
     1    92    77  -0.620891E+03  -0.426505E+03  -0.778782E+02  -0.930000E+02


 SOLVING FOR HEAD 
                                                   Max.-Head-Change                        Max.-Flux-Residual
  Residual-Control   Outer-Iter.   Inner-Iter.     Column Row Layer    Max.-Head-Change    Column Row Layer    Max.-Flux-Residual            L2-New               L2-Old           Solver-Max-Delh
          0                 1           3           264   78     1       0.8388413797E+00     383  326    1       0.1287216330E+04      0.9030479457E+04      0.4762416106E+02      0.8388413797E+00
          0                 2           2           264   78     1      -0.7426001744E-01     383  326    1      -0.1287881011E+03      0.9035740089E+03      0.9030479457E+04     -0.7426001744E-01

    ------------------------------------------------
       NWT REQUIRED            2 OUTER ITERATIONS 
       AND A TOTAL OF          5 INNER ITERATIONS.
    ------------------------------------------------

 NO OUTPUT CONTROL FOR STRESS PERIOD    8   TIME STEP    6

 WELLS WITH REDUCED PUMPING FOR STRESS PERIOD     8 TIME STEP     6
   LAY   ROW   COL         APPL.Q          ACT.Q        GW-HEAD       CELL-BOT
     1    92    77  -0.620891E+03  -0.447594E+03  -0.772861E+02  -0.930000E+02


 SOLVING FOR HEAD 
                                                   Max.-Head-Change                        Max.-Flux-Residual
  Residual-Control   Outer-Iter.   Inner-Iter.     Column Row Layer    Max.-Head-Change    Column Row Layer    Max.-Flux-Residual            L2-New               L2-Old           Solver-Max-Delh
          0                 1           3           264   78     1       0.6785683534E+00     383  326    1       0.1166118406E+04      0.8660529157E+04      0.4517995970E+02      0.6785683534E+00
          0                 2           2           320  171     1       0.6256492512E-01     383  326    1      -0.1166738960E+03      0.8706319381E+03      0.8660529157E+04      0.6256492512E-01

    ------------------------------------------------
       NWT REQUIRED            2 OUTER ITERATIONS 
       AND A TOTAL OF          5 INNER ITERATIONS.
    ------------------------------------------------

 NO OUTPUT CONTROL FOR STRESS PERIOD    8   TIME STEP    7

 WELLS WITH REDUCED PUMPING FOR STRESS PERIOD     8 TIME STEP     7
   LAY   ROW   COL         APPL.Q          ACT.Q        GW-HEAD       CELL-BOT
     1    92    77  -0.620891E+03  -0.463271E+03  -0.768332E+02  -0.930000E+02


 SOLVING FOR HEAD 
                                                   Max.-Head-Change                        Max.-Flux-Residual
  Residual-Control   Outer-Iter.   Inner-Iter.     Column Row Layer    Max.-Head-Change    Column Row Layer    Max.-Flux-Residual            L2-New               L2-Old           Solver-Max-Delh
          0                 1           3           264   78     1       0.5531278385E+00     383  326    1       0.1060353635E+04      0.8364776192E+04      0.4344458029E+02      0.5531278385E+00
          0                 2           2           320  171     1       0.6209255893E-01     383  326    1      -0.1060923068E+03      0.8431147754E+03      0.8364776192E+04      0.6209255893E-01

    ------------------------------------------------
       NWT REQUIRED            2 OUTER ITERATIONS 
       AND A TOTAL OF          5 INNER ITERATIONS.
    ------------------------------------------------

 NO OUTPUT CONTROL FOR STRESS PERIOD    8   TIME STEP    8

 WELLS WITH REDUCED PUMPING FOR STRESS PERIOD     8 TIME STEP     8
   LAY   ROW   COL         APPL.Q          ACT.Q        GW-HEAD       CELL-BOT
     1    92    77  -0.620891E+03  -0.474974E+03  -0.764863E+02  -0.930000E+02


 SOLVING FOR HEAD 
                                                   Max.-Head-Change                        Max.-Flux-Residual
  Residual-Control   Outer-Iter.   Inner-Iter.     Column Row Layer    Max.-Head-Change    Column Row Layer    Max.-Flux-Residual            L2-New               L2-Old           Solver-Max-Delh
          0                 1           3           343  217     1       0.4801150887E+00     383  326    1       0.9677139603E+03      0.8118815523E+04      0.4217601658E+02      0.4801150887E+00
          0                 2           2           320  171     1       0.6071692661E-01     457  432    1      -0.1100471127E+03      0.8212762725E+03      0.8118815523E+04      0.6071692661E-01

    ------------------------------------------------
       NWT REQUIRED            2 OUTER ITERATIONS 
       AND A TOTAL OF          5 INNER ITERATIONS.
    ------------------------------------------------

 NO OUTPUT CONTROL FOR STRESS PERIOD    8   TIME STEP    9

 WELLS WITH REDUCED PUMPING FOR STRESS PERIOD     8 TIME STEP     9
   LAY   ROW   COL         APPL.Q          ACT.Q        GW-HEAD       CELL-BOT
     1    92    77  -0.620891E+03  -0.483733E+03  -0.762211E+02  -0.930000E+02


 SOLVING FOR HEAD 
                                                   Max.-Head-Change                        Max.-Flux-Residual
  Residual-Control   Outer-Iter.   Inner-Iter.     Column Row Layer    Max.-Head-Change    Column Row Layer    Max.-Flux-Residual            L2-New               L2-Old           Solver-Max-Delh
          0                 1           3           343  217     1       0.4428517026E+00     383  326    1       0.8863420852E+03      0.7907429120E+04      0.4106544806E+02      0.4428517026E+00
          0                 2           2           320  171     1       0.6020017656E-01     458  433    1       0.1242084654E+03      0.8003868274E+03      0.7907429120E+04      0.6020017656E-01

    ------------------------------------------------
       NWT REQUIRED            2 OUTER ITERATIONS 
       AND A TOTAL OF          5 INNER ITERATIONS.
    ------------------------------------------------

 OUTPUT CONTROL FOR STRESS PERIOD    8   TIME STEP   10
    SAVE HEAD FOR ALL LAYERS

 WELLS WITH REDUCED PUMPING FOR STRESS PERIOD     8 TIME STEP    10
   LAY   ROW   COL         APPL.Q          ACT.Q        GW-HEAD       CELL-BOT
     1    92    77  -0.620891E+03  -0.490288E+03  -0.760190E+02  -0.930000E+02


 HEAD WILL BE SAVED ON UNIT   51 AT END OF TIME STEP   10, STRESS PERIOD    8
1
  VOLUMETRIC BUDGET FOR ENTIRE MODEL AT END OF TIME STEP   10, STRESS PERIOD   8
  ------------------------------------------------------------------------------

     CUMULATIVE VOLUMES      L**3       RATES FOR THIS TIME STEP      L**3/T
     ------------------                 ------------------------

           IN:                                      IN:
           ---                                      ---
             STORAGE =   139061776.0000               STORAGE =      228560.5781
       CONSTANT HEAD =    11429947.0000         CONSTANT HEAD =       48920.1523
               WELLS =           0.0000                 WELLS =           0.0000
              DRAINS =           0.0000                DRAINS =           0.0000
                  ET =           0.0000                    ET =           0.0000
            RECHARGE =    47817976.0000              RECHARGE =      226635.9688

            TOTAL IN =   198309696.0000              TOTAL IN =      504116.6875

          OUT:                                     OUT:
          ----                                     ----
             STORAGE =    72757120.0000               STORAGE =      178696.2969
       CONSTANT HEAD =           0.0000         CONSTANT HEAD =           0.0000
               WELLS =    83139368.0000                 WELLS =      144184.3594
              DRAINS =    26670736.0000                DRAINS =      122846.6172
                  ET =    15557262.0000                    ET =       58139.9336
            RECHARGE =       81860.0000              RECHARGE =           0.0000

           TOTAL OUT =   198206336.0000             TOTAL OUT =      503867.2188

            IN - OUT =      103360.0000              IN - OUT =         249.4688

 PERCENT DISCREPANCY =           0.05     PERCENT DISCREPANCY =           0.05






         TIME SUMMARY AT END OF TIME STEP   10 IN STRESS PERIOD    8
                    SECONDS     MINUTES      HOURS       DAYS        YEARS
                    -----------------------------------------------------------
   TIME STEP LENGTH 2.62656E+05  4377.6      72.960      3.0400     8.32307E-03
 STRESS PERIOD TIME 2.62656E+06  43776.      729.60      30.400     8.32307E-02
         TOTAL TIME 2.10125E+07 3.50208E+05  5836.8      243.20     0.66584    
1
1
                            STRESS PERIOD NO.    9, LENGTH =   30.40000    
                            -----------------------------------------------

                              NUMBER OF TIME STEPS =    10

                               MULTIPLIER FOR DELT =     1.000

                            INITIAL TIME STEP SIZE =   3.040000    

 WELL NO.  LAYER   ROW   COL   STRESS RATE         
 --------------------------------------------------
      1      1     69    225      -691.2    
      2      1     71    224      -6048.    
      3      1     74    220      -6134.    
      4      1     73    220       0.000    
      5      1     71    223      -6221.    
      6      1     71    223      -7344.    
      7      1     72    223      -6394.    
      8      1     92    173      -6653.    
      9      1     94    174      -5875.    
     10      1     93    175       0.000    
     11      1    203    328      -5875.    
     12      1    438    460      -550.5    
     13      1    436    461      -550.5    
     14      1    410    454      -550.5    
     15      1    433    460      -550.5    
     16      1    431    462      -550.5    
     17      1    417    459      -550.5    
     18      1    418    458      -550.5    
     19      1    414    455      -550.5    
     20      1    443    464      -550.5    
     21      1    379    425      -550.5    
     22      1    362    405      -550.5    
     23      1    361    405      -550.5    
     24      1    362    406      -550.5    
     25      1    363    408      -550.5    
     26      1    364    410      -550.5    
     27      1    369    418      -550.5    
     28      1    367    417      -550.5    
     29      1    365    415      -550.5    
     30      1    402    447      -550.5    
     31      1    400    446      -550.5    
     32      1    392    444      -550.5    
     33      1    391    441      -550.5    
     34      1    403    448      -550.5    
     35      1    405    447      -550.5    
     36      1    362    410      -550.5    
     37      1    362    411      -550.5    
     38      1    363    412      -550.5    
     39      1    375    421      -550.5    
     40      1    383    430      -550.5    
     41      1    397    445      -550.5    
     42      1    360    403      -550.5    
     43      1    350    401      -550.5    
     44      1    346    393      -581.6    
     45      1    333    387      -581.6    
     46      1    328    384      -581.6    
     47      1    326    383      -581.6    
     48      1    323    378      -581.6    
     49      1    321    378      -581.6    
     50      1    322    376      -581.6    
     51      1    316    374      -581.6    
     52      1    311    371      -581.6    
     53      1    307    369      -581.6    
     54      1    305    368      -581.6    
     55      1    303    368      -581.6    
     56      1    300    369      -581.6    
     57      1    293    364      -581.6    
     58      1    292    362      -581.6    
     59      1    278    350      -581.6    
     60      1    274    351      -581.6    
     61      1    273    350      -581.6    
     62      1    271    350      -581.6    
     63      1    267    348      -581.6    
     64      1    263    348      -581.6    
     65      1    263    348      -581.6    
     66      1    248    347      -581.6    
     67      1    243    342      -581.6    
     68      1    242    339      -581.6    
     69      1    238    341      -581.6    
     70      1    233    340      -581.6    
     71      1    232    340      -581.6    
     72      1    229    341      -581.6    
     73      1    227    341      -581.6    
     74      1    219    342      -581.6    
     75      1    219    336      -581.6    
     76      1    199    329      -581.6    
     77      1    191    332      -343.8    
     78      1    190    332      -343.8    
     79      1    130    310      -343.8    
     80      1    123    305      -343.8    
     81      1    104    289      -343.8    
     82      1     96    287      -1045.    
     83      1     95    284      -1045.    
     84      1     95    280      -1045.    
     85      1     93    276      -1045.    
     86      1     94    275      -1045.    
     87      1     90    277      -1045.    
     88      1     90    273      -1045.    
     89      1     86    271      -1045.    
     90      1     85    270      -1045.    
     91      1     84    265      -1045.    
     92      1     85    265      -1045.    
     93      1     84    264      -1045.    
     94      1     79    263      -1045.    
     95      1     79    263      -1045.    
     96      1     76    262      -1045.    
     97      1     73    257      -1045.    
     98      1     74    255      -1045.    
     99      1     71    255      -1045.    
    100      1     66    253      -1045.    
    101      1     68    252      -1045.    
    102      1     69    250      -1045.    
    103      1     65    248      -1045.    
    104      1     68    248      -1045.    
    105      1     69    247      -1045.    
    106      1     73    247      -1045.    
    107      1     64    246      -1045.    
    108      1     69    245      -1045.    
    109      1     72    245      -1045.    
    110      1     69    241      -1045.    
    111      1     73    238      -1045.    
    112      1     70    238      -1045.    
    113      1     76    263      -1045.    
    114      1     66    232      -728.1    
    115      1     69    229      -728.1    
    116      1     71    228      -728.1    
    117      1     69    227      -728.1    
    118      1     72    219      -728.1    
    119      1     72    218      -728.1    
    120      1     72    218      -728.1    
    121      1     73    217      -728.1    
    122      1     77    219      -728.1    
    123      1     78    219      -728.1    
    124      1     83    213      -728.1    
    125      1     77    213      -728.1    
    126      1     81    211      -728.1    
    127      1     81    210      -728.1    
    128      1     81    210      -728.1    
    129      1     82    208      -728.1    
    130      1     80    205      -728.1    
    131      1     86    202      -728.1    
    132      1     84    200      -728.1    
    133      1     89    200      -728.1    
    134      1     89    199      -728.1    
    135      1     88    199      -728.1    
    136      1     86    199      -728.1    
    137      1     85    199      -728.1    
    138      1     82    197      -728.1    
    139      1     86    197      -728.1    
    140      1     88    198      -728.1    
    141      1     90    192      -728.1    
    142      1     89    191      -728.1    
    143      1     84    192      -728.1    
    144      1     91    189      -728.1    
    145      1     92    185      -728.1    
    146      1     87    183      -728.1    
    147      1     92    182      -728.1    
    148      1     90    182      -728.1    
    149      1     88    179      -728.1    
    150      1     89    176      -728.1    
    151      1     92    172      -728.1    
    152      1     93    164      -728.1    
    153      1     94    162      -728.1    
    154      1    103    156      -728.1    
    155      1    103    156      -728.1    
    156      1     96    154      -728.1    
    157      1     97    153      -728.1    
    158      1    122    139      -728.1    
    159      1     92     77      -728.1    
    160      1     94     77      -728.1    
    161      1     94     73      -728.1    
    162      1     97    152      -728.1    
    163      1    118    337      -666.7    
    164      1    133    319      -2678.    
    165      1    131    320      -3951.    
    166      1    133    321      -2956.    
    167      1    161    329      -2141.    
    168      1    178    330      -551.0    
    169      1    163    330      -1122.    
    170      1    131    320      -2473.    
    171      1    129    315      -3937.    
    172      1    162    329      -1959.    
    173      1    131    311      -826.1    
    174      1    221    340      -1994.    
    175      1    220    340      -1034.    
    176      1    221    340      -667.7    
    177      1    137    322      -2082.    
    178      1    137    321      -1407.    
    179      1    185    329      -2012.    
    180      1    183    329      -1473.    
    181      1    175    329      -585.3    
    182      1     79    243      -1490.    
    183      1     77    245      -2414.    
    184      1    199    329      -1617.    
    185      1    198    330      -2514.    
    186      1    140    328      -972.1    
    187      1    143    327      -863.6    
    188      1    139    327      -1331.    

    188 WELLS

 REUSING NON-PARAMETER DRAINS FROM LAST STRESS PERIOD

   1061 DRAINS

 REUSING SURF FROM LAST STRESS PERIOD

 REUSING EVTR FROM LAST STRESS PERIOD

 REUSING EXDP FROM LAST STRESS PERIOD



                           RECHARGE
 READING ON UNIT   19 WITH FORMAT: (510E15.6)          

 SOLVING FOR HEAD 
                                                   Max.-Head-Change                        Max.-Flux-Residual
  Residual-Control   Outer-Iter.   Inner-Iter.     Column Row Layer    Max.-Head-Change    Column Row Layer    Max.-Flux-Residual            L2-New               L2-Old           Solver-Max-Delh
          0                 1           3           263   79     1      -0.2677943334E+01     348  263    1      -0.1074450821E+04      0.8467771818E+04      0.4002061971E+02     -0.2677943334E+01
          0                 2           2           263   79     1       0.2259198805E+00     348  263    1       0.1064646100E+03      0.8495502281E+03      0.8467771818E+04      0.2259198805E+00
          0                 3           2           263   79     1       0.1127893621E-01     348  263    1       0.5315996850E+01      0.4243761821E+02      0.8495502281E+03      0.1127893621E-01

    ------------------------------------------------
       NWT REQUIRED            3 OUTER ITERATIONS 
       AND A TOTAL OF          7 INNER ITERATIONS.
    ------------------------------------------------

 NO OUTPUT CONTROL FOR STRESS PERIOD    9   TIME STEP    1

 WELLS WITH REDUCED PUMPING FOR STRESS PERIOD     9 TIME STEP     1
   LAY   ROW   COL         APPL.Q          ACT.Q        GW-HEAD       CELL-BOT
     1    92    77  -0.728135E+03  -0.562451E+03  -0.763466E+02  -0.930000E+02


 SOLVING FOR HEAD 
                                                   Max.-Head-Change                        Max.-Flux-Residual
  Residual-Control   Outer-Iter.   Inner-Iter.     Column Row Layer    Max.-Head-Change    Column Row Layer    Max.-Flux-Residual            L2-New               L2-Old           Solver-Max-Delh
          0                 1           3           263   79     1      -0.9588905143E+00      77   94    1      -0.6244894834E+03      0.6457909511E+04      0.4243761821E+02     -0.9588905143E+00
          0                 2           2           263   79     1       0.8250387155E-01     457  434    1      -0.8007822746E+02      0.6508317833E+03      0.6457909511E+04      0.8250387155E-01

    ------------------------------------------------
       NWT REQUIRED            2 OUTER ITERATIONS 
       AND A TOTAL OF          5 INNER ITERATIONS.
    ------------------------------------------------

 NO OUTPUT CONTROL FOR STRESS PERIOD    9   TIME STEP    2

 WELLS WITH REDUCED PUMPING FOR STRESS PERIOD     9 TIME STEP     2
   LAY   ROW   COL         APPL.Q          ACT.Q        GW-HEAD       CELL-BOT
     1    92    77  -0.728135E+03  -0.552443E+03  -0.766028E+02  -0.930000E+02


 SOLVING FOR HEAD 
                                                   Max.-Head-Change                        Max.-Flux-Residual
  Residual-Control   Outer-Iter.   Inner-Iter.     Column Row Layer    Max.-Head-Change    Column Row Layer    Max.-Flux-Residual            L2-New               L2-Old           Solver-Max-Delh
          0                 1           3           263   79     1      -0.3465833820E+00      77   94    1      -0.6240389321E+03      0.6092568779E+04      0.3254328850E+02     -0.3465833820E+00
          0                 2           2           320  171     1       0.5698684242E-01      77   94    1       0.6239503808E+02      0.6094275172E+03      0.6092568779E+04      0.5698684242E-01

    ------------------------------------------------
       NWT REQUIRED            2 OUTER ITERATIONS 
       AND A TOTAL OF          5 INNER ITERATIONS.
    ------------------------------------------------

 NO OUTPUT CONTROL FOR STRESS PERIOD    9   TIME STEP    3

 WELLS WITH REDUCED PUMPING FOR STRESS PERIOD     9 TIME STEP     3
   LAY   ROW   COL         APPL.Q          ACT.Q        GW-HEAD       CELL-BOT
     1    92    77  -0.728135E+03  -0.544518E+03  -0.768025E+02  -0.930000E+02


 SOLVING FOR HEAD 
                                                   Max.-Head-Change                        Max.-Flux-Residual
  Residual-Control   Outer-Iter.   Inner-Iter.     Column Row Layer    Max.-Head-Change    Column Row Layer    Max.-Flux-Residual            L2-New               L2-Old           Solver-Max-Delh
          0                 1           3            77   94     1      -0.2584537134E+00      77   94    1      -0.6235889273E+03      0.5913159925E+04      0.3047238427E+02     -0.2584537134E+00
          0                 2           2           320  171     1       0.5639454239E-01      77   94    1       0.6235005014E+02      0.5913324208E+03      0.5913159925E+04      0.5639454239E-01

    ------------------------------------------------
       NWT REQUIRED            2 OUTER ITERATIONS 
       AND A TOTAL OF          5 INNER ITERATIONS.
    ------------------------------------------------

 NO OUTPUT CONTROL FOR STRESS PERIOD    9   TIME STEP    4

 WELLS WITH REDUCED PUMPING FOR STRESS PERIOD     9 TIME STEP     4
   LAY   ROW   COL         APPL.Q          ACT.Q        GW-HEAD       CELL-BOT
     1    92    77  -0.728135E+03  -0.538234E+03  -0.769590E+02  -0.930000E+02


 SOLVING FOR HEAD 
                                                   Max.-Head-Change                        Max.-Flux-Residual
  Residual-Control   Outer-Iter.   Inner-Iter.     Column Row Layer    Max.-Head-Change    Column Row Layer    Max.-Flux-Residual            L2-New               L2-Old           Solver-Max-Delh
          0                 1           3            77   94     1      -0.2582705652E+00      77   94    1      -0.6231395309E+03      0.5796957569E+04      0.2956747235E+02     -0.2582705652E+00
          0                 2           2           320  171     1       0.5508873035E-01      77   94    1       0.6230512294E+02      0.5797017218E+03      0.5796957569E+04      0.5508873035E-01

    ------------------------------------------------
       NWT REQUIRED            2 OUTER ITERATIONS 
       AND A TOTAL OF          5 INNER ITERATIONS.
    ------------------------------------------------

 NO OUTPUT CONTROL FOR STRESS PERIOD    9   TIME STEP    5

 WELLS WITH REDUCED PUMPING FOR STRESS PERIOD     9 TIME STEP     5
   LAY   ROW   COL         APPL.Q          ACT.Q        GW-HEAD       CELL-BOT
     1    92    77  -0.728135E+03  -0.533227E+03  -0.770826E+02  -0.930000E+02


 SOLVING FOR HEAD 
                                                   Max.-Head-Change                        Max.-Flux-Residual
  Residual-Control   Outer-Iter.   Inner-Iter.     Column Row Layer    Max.-Head-Change    Column Row Layer    Max.-Flux-Residual            L2-New               L2-Old           Solver-Max-Delh
          0                 1           3            77   94     1      -0.2580875893E+00      77   94    1      -0.6226905725E+03      0.5709201213E+04      0.2898587410E+02     -0.2580875893E+00
          0                 2           2           320  171     1       0.5452315146E-01      77   94    1       0.6226023947E+02      0.5709317085E+03      0.5709201213E+04      0.5452315146E-01

    ------------------------------------------------
       NWT REQUIRED            2 OUTER ITERATIONS 
       AND A TOTAL OF          5 INNER ITERATIONS.
    ------------------------------------------------

 NO OUTPUT CONTROL FOR STRESS PERIOD    9   TIME STEP    6

 WELLS WITH REDUCED PUMPING FOR STRESS PERIOD     9 TIME STEP     6
   LAY   ROW   COL         APPL.Q          ACT.Q        GW-HEAD       CELL-BOT
     1    92    77  -0.728135E+03  -0.529204E+03  -0.771813E+02  -0.930000E+02


 SOLVING FOR HEAD 
                                                   Max.-Head-Change                        Max.-Flux-Residual
  Residual-Control   Outer-Iter.   Inner-Iter.     Column Row Layer    Max.-Head-Change    Column Row Layer    Max.-Flux-Residual            L2-New               L2-Old           Solver-Max-Delh
          0                 1           3            77   94     1      -0.2579048467E+00      77   94    1      -0.6222421980E+03      0.5636569756E+04      0.2854734188E+02     -0.2579048467E+00
          0                 2           2           282   74     1       0.9929409492E-01      77   94    1       0.6221541437E+02      0.5637338105E+03      0.5636569756E+04      0.9929409492E-01

    ------------------------------------------------
       NWT REQUIRED            2 OUTER ITERATIONS 
       AND A TOTAL OF          5 INNER ITERATIONS.
    ------------------------------------------------

 NO OUTPUT CONTROL FOR STRESS PERIOD    9   TIME STEP    7

 WELLS WITH REDUCED PUMPING FOR STRESS PERIOD     9 TIME STEP     7
   LAY   ROW   COL         APPL.Q          ACT.Q        GW-HEAD       CELL-BOT
     1    92    77  -0.728135E+03  -0.525934E+03  -0.772611E+02  -0.930000E+02


 SOLVING FOR HEAD 
                                                   Max.-Head-Change                        Max.-Flux-Residual
  Residual-Control   Outer-Iter.   Inner-Iter.     Column Row Layer    Max.-Head-Change    Column Row Layer    Max.-Flux-Residual            L2-New               L2-Old           Solver-Max-Delh
          0                 1           3            77   94     1      -0.2577223017E+00      77   94    1      -0.6217943193E+03      0.5572926913E+04      0.2818754901E+02     -0.2577223017E+00
          0                 2           2           282   74     1       0.1277382949E+00      77   94    1       0.6217063882E+02      0.5573165984E+03      0.5572926913E+04      0.1277382949E+00
          0                 3           2           282   74     1       0.1182168057E+00      77   94    1       0.3108471198E+01      0.2786657918E+02      0.5573165984E+03      0.1182168057E+00
          0                 4           2           282   74     1       0.1091717339E+00      77   94    1       0.1553925530E+00      0.1393054952E+01      0.2786657918E+02      0.1091717339E+00
          0                 5           2           282   74     1       0.1008159094E+00      77   94    1       0.7766531409E-02      0.6970895348E-01      0.1393054952E+01      0.1008159094E+00
          0                 6           2           282   74     1       0.9310567172E-01     457  456    1       0.2782683444E-02      0.4848496532E-02      0.6970895348E-01      0.9310567172E-01

    ------------------------------------------------
       NWT REQUIRED            6 OUTER ITERATIONS 
       AND A TOTAL OF         13 INNER ITERATIONS.
    ------------------------------------------------

 NO OUTPUT CONTROL FOR STRESS PERIOD    9   TIME STEP    8

 WELLS WITH REDUCED PUMPING FOR STRESS PERIOD     9 TIME STEP     8
   LAY   ROW   COL         APPL.Q          ACT.Q        GW-HEAD       CELL-BOT
     1    92    77  -0.728135E+03  -0.523253E+03  -0.773262E+02  -0.930000E+02


 SOLVING FOR HEAD 
                                                   Max.-Head-Change                        Max.-Flux-Residual
  Residual-Control   Outer-Iter.   Inner-Iter.     Column Row Layer    Max.-Head-Change    Column Row Layer    Max.-Flux-Residual            L2-New               L2-Old           Solver-Max-Delh
          0                 1           3            77   94     1      -0.2575408597E+00      77   94    1      -0.6213491574E+03      0.5515458581E+04      0.4848496532E-02     -0.2575408597E+00
          0                 2           2           282   74     1       0.1074420458E+00      77   94    1       0.6212613488E+02      0.5515356444E+03      0.5515458581E+04      0.1074420458E+00
          0                 3           2           282   74     1       0.9619930908E-01      77   94    1       0.3106246245E+01      0.2757775685E+02      0.5515356444E+03      0.9619930908E-01

    ------------------------------------------------
       NWT REQUIRED            3 OUTER ITERATIONS 
       AND A TOTAL OF          7 INNER ITERATIONS.
    ------------------------------------------------

 NO OUTPUT CONTROL FOR STRESS PERIOD    9   TIME STEP    9

 WELLS WITH REDUCED PUMPING FOR STRESS PERIOD     9 TIME STEP     9
   LAY   ROW   COL         APPL.Q          ACT.Q        GW-HEAD       CELL-BOT
     1    92    77  -0.728135E+03  -0.521007E+03  -0.773807E+02  -0.930000E+02


 SOLVING FOR HEAD 
                                                   Max.-Head-Change                        Max.-Flux-Residual
  Residual-Control   Outer-Iter.   Inner-Iter.     Column Row Layer    Max.-Head-Change    Column Row Layer    Max.-Flux-Residual            L2-New               L2-Old           Solver-Max-Delh
          0                 1           3            77   94     1      -0.2573596020E+00      77   94    1      -0.6209044557E+03      0.5462128405E+04      0.2757775685E+02     -0.2573596020E+00
          0                 2           2           282   74     1       0.9735517741E-01      77   94    1       0.6208167694E+02      0.5469425977E+03      0.5462128405E+04      0.9735517741E-01

    ------------------------------------------------
       NWT REQUIRED            2 OUTER ITERATIONS 
       AND A TOTAL OF          5 INNER ITERATIONS.
    ------------------------------------------------

 OUTPUT CONTROL FOR STRESS PERIOD    9   TIME STEP   10
    SAVE HEAD FOR ALL LAYERS

 WELLS WITH REDUCED PUMPING FOR STRESS PERIOD     9 TIME STEP    10
   LAY   ROW   COL         APPL.Q          ACT.Q        GW-HEAD       CELL-BOT
     1    92    77  -0.728135E+03  -0.519083E+03  -0.774271E+02  -0.930000E+02


 HEAD WILL BE SAVED ON UNIT   51 AT END OF TIME STEP   10, STRESS PERIOD    9
1
  VOLUMETRIC BUDGET FOR ENTIRE MODEL AT END OF TIME STEP   10, STRESS PERIOD   9
  ------------------------------------------------------------------------------

     CUMULATIVE VOLUMES      L**3       RATES FOR THIS TIME STEP      L**3/T
     ------------------                 ------------------------

           IN:                                      IN:
           ---                                      ---
             STORAGE =   146316720.0000               STORAGE =      232448.4531
       CONSTANT HEAD =    12920463.0000         CONSTANT HEAD =       49118.0781
               WELLS =           0.0000                 WELLS =           0.0000
              DRAINS =           0.0000                DRAINS =           0.0000
                  ET =           0.0000                    ET =           0.0000
            RECHARGE =    53457696.0000              RECHARGE =      185516.8125

            TOTAL IN =   212694880.0000              TOTAL IN =      467083.3438

          OUT:                                     OUT:
          ----                                     ----
             STORAGE =    75674216.0000               STORAGE =       86989.0234
       CONSTANT HEAD =           0.0000         CONSTANT HEAD =           0.0000
               WELLS =    88978312.0000                 WELLS =      192054.7969
              DRAINS =    30505594.0000                DRAINS =      128542.6484
                  ET =    17336284.0000                    ET =       58774.6250
            RECHARGE =       81860.0000              RECHARGE =           0.0000

           TOTAL OUT =   212576272.0000             TOTAL OUT =      466361.0938

            IN - OUT =      118608.0000              IN - OUT =         722.2500

 PERCENT DISCREPANCY =           0.06     PERCENT DISCREPANCY =           0.15






         TIME SUMMARY AT END OF TIME STEP   10 IN STRESS PERIOD    9
                    SECONDS     MINUTES      HOURS       DAYS        YEARS
                    -----------------------------------------------------------
   TIME STEP LENGTH 2.62656E+05  4377.6      72.960      3.0400     8.32307E-03
 STRESS PERIOD TIME 2.62656E+06  43776.      729.60      30.400     8.32307E-02
         TOTAL TIME 2.36390E+07 3.93984E+05  6566.4      273.60     0.74908    
1
1
                            STRESS PERIOD NO.   10, LENGTH =   30.40000    
                            -----------------------------------------------

                              NUMBER OF TIME STEPS =    10

                               MULTIPLIER FOR DELT =     1.000

                            INITIAL TIME STEP SIZE =   3.040000    

 WELL NO.  LAYER   ROW   COL   STRESS RATE         
 --------------------------------------------------
      1      1     69    225      -777.6    
      2      1     71    224      -6048.    
      3      1     74    220      -6134.    
      4      1     73    220       0.000    
      5      1     71    223      -6221.    
      6      1     71    223      -7344.    
      7      1     72    223      -6394.    
      8      1     92    173      -6653.    
      9      1     94    174      -5875.    
     10      1     93    175       0.000    
     11      1    203    328      -5875.    
     12      1    438    460      -2893.    
     13      1    436    461      -2893.    
     14      1    410    454      -2893.    
     15      1    433    460      -2893.    
     16      1    431    462      -2893.    
     17      1    417    459      -2893.    
     18      1    418    458      -2893.    
     19      1    414    455      -2893.    
     20      1    443    464      -2893.    
     21      1    379    425      -2893.    
     22      1    362    405      -2893.    
     23      1    361    405      -2893.    
     24      1    362    406      -2893.    
     25      1    363    408      -2893.    
     26      1    364    410      -2893.    
     27      1    369    418      -2893.    
     28      1    367    417      -2893.    
     29      1    365    415      -2893.    
     30      1    402    447      -2893.    
     31      1    400    446      -2893.    
     32      1    392    444      -2893.    
     33      1    391    441      -2893.    
     34      1    403    448      -2893.    
     35      1    405    447      -2893.    
     36      1    362    410      -2893.    
     37      1    362    411      -2893.    
     38      1    363    412      -2893.    
     39      1    375    421      -2893.    
     40      1    383    430      -2893.    
     41      1    397    445      -2893.    
     42      1    360    403      -2893.    
     43      1    350    401      -2893.    
     44      1    346    393      -3864.    
     45      1    333    387      -3864.    
     46      1    328    384      -3864.    
     47      1    326    383      -3864.    
     48      1    323    378      -3864.    
     49      1    321    378      -3864.    
     50      1    322    376      -3864.    
     51      1    316    374      -3864.    
     52      1    311    371      -3864.    
     53      1    307    369      -3864.    
     54      1    305    368      -3864.    
     55      1    303    368      -3864.    
     56      1    300    369      -3864.    
     57      1    293    364      -3864.    
     58      1    292    362      -3864.    
     59      1    278    350      -3864.    
     60      1    274    351      -3864.    
     61      1    273    350      -3864.    
     62      1    271    350      -3864.    
     63      1    267    348      -3864.    
     64      1    263    348      -3864.    
     65      1    263    348      -3864.    
     66      1    248    347      -3864.    
     67      1    243    342      -3864.    
     68      1    242    339      -3864.    
     69      1    238    341      -3864.    
     70      1    233    340      -3864.    
     71      1    232    340      -3864.    
     72      1    229    341      -3864.    
     73      1    227    341      -3864.    
     74      1    219    342      -3864.    
     75      1    219    336      -3864.    
     76      1    199    329      -3864.    
     77      1    191    332      -4988.    
     78      1    190    332      -4988.    
     79      1    130    310      -4988.    
     80      1    123    305      -4988.    
     81      1    104    289      -4988.    
     82      1     96    287      -4290.    
     83      1     95    284      -4290.    
     84      1     95    280      -4290.    
     85      1     93    276      -4290.    
     86      1     94    275      -4290.    
     87      1     90    277      -4290.    
     88      1     90    273      -4290.    
     89      1     86    271      -4290.    
     90      1     85    270      -4290.    
     91      1     84    265      -4290.    
     92      1     85    265      -4290.    
     93      1     84    264      -4290.    
     94      1     79    263      -4290.    
     95      1     79    263      -4290.    
     96      1     76    262      -4290.    
     97      1     73    257      -4290.    
     98      1     74    255      -4290.    
     99      1     71    255      -4290.    
    100      1     66    253      -4290.    
    101      1     68    252      -4290.    
    102      1     69    250      -4290.    
    103      1     65    248      -4290.    
    104      1     68    248      -4290.    
    105      1     69    247      -4290.    
    106      1     73    247      -4290.    
    107      1     64    246      -4290.    
    108      1     69    245      -4290.    
    109      1     72    245      -4290.    
    110      1     69    241      -4290.    
    111      1     73    238      -4290.    
    112      1     70    238      -4290.    
    113      1     76    263      -4290.    
    114      1     66    232      -2310.    
    115      1     69    229      -2310.    
    116      1     71    228      -2310.    
    117      1     69    227      -2310.    
    118      1     72    219      -2310.    
    119      1     72    218      -2310.    
    120      1     72    218      -2310.    
    121      1     73    217      -2310.    
    122      1     77    219      -2310.    
    123      1     78    219      -2310.    
    124      1     83    213      -2310.    
    125      1     77    213      -2310.    
    126      1     81    211      -2310.    
    127      1     81    210      -2310.    
    128      1     81    210      -2310.    
    129      1     82    208      -2310.    
    130      1     80    205      -2310.    
    131      1     86    202      -2310.    
    132      1     84    200      -2310.    
    133      1     89    200      -2310.    
    134      1     89    199      -2310.    
    135      1     88    199      -2310.    
    136      1     86    199      -2310.    
    137      1     85    199      -2310.    
    138      1     82    197      -2310.    
    139      1     86    197      -2310.    
    140      1     88    198      -2310.    
    141      1     90    192      -2310.    
    142      1     89    191      -2310.    
    143      1     84    192      -2310.    
    144      1     91    189      -2310.    
    145      1     92    185      -2310.    
    146      1     87    183      -2310.    
    147      1     92    182      -2310.    
    148      1     90    182      -2310.    
    149      1     88    179      -2310.    
    150      1     89    176      -2310.    
    151      1     92    172      -2310.    
    152      1     93    164      -2310.    
    153      1     94    162      -2310.    
    154      1    103    156      -2310.    
    155      1    103    156      -2310.    
    156      1     96    154      -2310.    
    157      1     97    153      -2310.    
    158      1    122    139      -2310.    
    159      1     92     77      -2310.    
    160      1     94     77      -2310.    
    161      1     94     73      -2310.    
    162      1     97    152      -2310.    
    163      1    118    337      -666.7    
    164      1    133    319      -2678.    
    165      1    131    320      -3951.    
    166      1    133    321      -2956.    
    167      1    161    329      -2141.    
    168      1    178    330      -551.0    
    169      1    163    330      -1122.    
    170      1    131    320      -2473.    
    171      1    129    315      -3937.    
    172      1    162    329      -1959.    
    173      1    131    311      -826.1    
    174      1    221    340      -1994.    
    175      1    220    340      -1034.    
    176      1    221    340      -667.7    
    177      1    137    322      -2082.    
    178      1    137    321      -1407.    
    179      1    185    329      -2012.    
    180      1    183    329      -1473.    
    181      1    175    329      -585.3    
    182      1     79    243      -1490.    
    183      1     77    245      -2414.    
    184      1    199    329      -1617.    
    185      1    198    330      -2514.    
    186      1    140    328      -972.1    
    187      1    143    327      -863.6    
    188      1    139    327      -1331.    

    188 WELLS

 REUSING NON-PARAMETER DRAINS FROM LAST STRESS PERIOD

   1061 DRAINS

 REUSING SURF FROM LAST STRESS PERIOD

 REUSING EVTR FROM LAST STRESS PERIOD

 REUSING EXDP FROM LAST STRESS PERIOD



                           RECHARGE
 READING ON UNIT   19 WITH FORMAT: (510E15.6)          

 SOLVING FOR HEAD 
                                                   Max.-Head-Change                        Max.-Flux-Residual
  Residual-Control   Outer-Iter.   Inner-Iter.     Column Row Layer    Max.-Head-Change    Column Row Layer    Max.-Flux-Residual            L2-New               L2-Old           Solver-Max-Delh
          0                 1           3           263   79     1      -0.1729420560E+02     348  263    1      -0.6591000702E+04      0.3421009293E+05      0.2734809066E+02     -0.1729420560E+02
          0                 2           2           263   79     1       0.1341130803E+01     197   86    1       0.1794963612E+04      0.3829731833E+04      0.3421009293E+05      0.1341130803E+01
          0                 3           2           282   74     1       0.7098878795E-01     197   86    1       0.8942088796E+02      0.2026604868E+03      0.3829731833E+04      0.7098878795E-01

    ------------------------------------------------
       NWT REQUIRED            3 OUTER ITERATIONS 
       AND A TOTAL OF          7 INNER ITERATIONS.
    ------------------------------------------------

 NO OUTPUT CONTROL FOR STRESS PERIOD   10   TIME STEP    1

 WELLS WITH REDUCED PUMPING FOR STRESS PERIOD    10 TIME STEP     1
   LAY   ROW   COL         APPL.Q          ACT.Q        GW-HEAD       CELL-BOT
     1    92    77  -0.230952E+04  -0.108266E+04  -0.814502E+02  -0.930000E+02


 SOLVING FOR HEAD 
                                                   Max.-Head-Change                        Max.-Flux-Residual
  Residual-Control   Outer-Iter.   Inner-Iter.     Column Row Layer    Max.-Head-Change    Column Row Layer    Max.-Flux-Residual            L2-New               L2-Old           Solver-Max-Delh
          0                 1           3           263   79     1      -0.6814201994E+01     374  316    1      -0.2905576684E+04      0.1796611533E+05      0.2026604868E+03     -0.6814201994E+01
          0                 2           3           263   79     1       0.5533364907E+00     374  316    1       0.2902493261E+03      0.1787637193E+04      0.1796611533E+05      0.5533364907E+00
          0                 3           2           282   74     1       0.4275717185E-01     374  316    1       0.1451016108E+02      0.8934650343E+02      0.1787637193E+04      0.4275717185E-01

    ------------------------------------------------
       NWT REQUIRED            3 OUTER ITERATIONS 
       AND A TOTAL OF          8 INNER ITERATIONS.
    ------------------------------------------------

 NO OUTPUT CONTROL FOR STRESS PERIOD   10   TIME STEP    2

 WELLS WITH REDUCED PUMPING FOR STRESS PERIOD    10 TIME STEP     2
   LAY   ROW   COL         APPL.Q          ACT.Q        GW-HEAD       CELL-BOT
     1    92    77  -0.230952E+04  -0.809790E+03  -0.833816E+02  -0.930000E+02


 SOLVING FOR HEAD 
                                                   Max.-Head-Change                        Max.-Flux-Residual
  Residual-Control   Outer-Iter.   Inner-Iter.     Column Row Layer    Max.-Head-Change    Column Row Layer    Max.-Flux-Residual            L2-New               L2-Old           Solver-Max-Delh
          0                 1           3           263   79     1      -0.3027725804E+01     374  316    1      -0.2584585367E+04      0.1487301602E+05      0.8934650343E+02     -0.3027725804E+01
          0                 2           2           263   79     1       0.2528455962E+00     374  316    1       0.2581703225E+03      0.1489178675E+04      0.1487301602E+05      0.2528455962E+00
          0                 3           2           282   74     1       0.2133269807E-01     374  316    1       0.1290637597E+02      0.7443594842E+02      0.1489178675E+04      0.2133269807E-01

    ------------------------------------------------
       NWT REQUIRED            3 OUTER ITERATIONS 
       AND A TOTAL OF          7 INNER ITERATIONS.
    ------------------------------------------------

 NO OUTPUT CONTROL FOR STRESS PERIOD   10   TIME STEP    3

 WELLS WITH REDUCED PUMPING FOR STRESS PERIOD    10 TIME STEP     3
   LAY   ROW   COL         APPL.Q          ACT.Q        GW-HEAD       CELL-BOT
     1    92    77  -0.230952E+04  -0.681557E+03  -0.843294E+02  -0.930000E+02


 SOLVING FOR HEAD 
                                                   Max.-Head-Change                        Max.-Flux-Residual
  Residual-Control   Outer-Iter.   Inner-Iter.     Column Row Layer    Max.-Head-Change    Column Row Layer    Max.-Flux-Residual            L2-New               L2-Old           Solver-Max-Delh
          0                 1           3           263   79     1      -0.1564602551E+01     378  321    1      -0.2317682810E+04      0.1344750547E+05      0.7443594842E+02     -0.1564602551E+01
          0                 2           2           263   79     1       0.1326654687E+00     378  321    1       0.2315021542E+03      0.1343503827E+04      0.1344750547E+05      0.1326654687E+00
          0                 3           2           457  456     1       0.1314023502E-01     378  321    1       0.1157311853E+02      0.6726109657E+02      0.1343503827E+04      0.1314023502E-01

    ------------------------------------------------
       NWT REQUIRED            3 OUTER ITERATIONS 
       AND A TOTAL OF          7 INNER ITERATIONS.
    ------------------------------------------------

 NO OUTPUT CONTROL FOR STRESS PERIOD   10   TIME STEP    4

 WELLS WITH REDUCED PUMPING FOR STRESS PERIOD    10 TIME STEP     4
   LAY   ROW   COL         APPL.Q          ACT.Q        GW-HEAD       CELL-BOT
     1    92    77  -0.230952E+04  -0.619569E+03  -0.848035E+02  -0.930000E+02


 SOLVING FOR HEAD 
                                                   Max.-Head-Change                        Max.-Flux-Residual
  Residual-Control   Outer-Iter.   Inner-Iter.     Column Row Layer    Max.-Head-Change    Column Row Layer    Max.-Flux-Residual            L2-New               L2-Old           Solver-Max-Delh
          0                 1           3           264   78     1      -0.1031553558E+01      77   94    1      -0.2173141904E+04      0.1260500562E+05      0.6726109657E+02     -0.1031553558E+01
          0                 2           2           264   78     1       0.8782149992E-01     199   89    1       0.2431129916E+03      0.1283240646E+04      0.1260500562E+05      0.8782149992E-01

    ------------------------------------------------
       NWT REQUIRED            2 OUTER ITERATIONS 
       AND A TOTAL OF          5 INNER ITERATIONS.
    ------------------------------------------------

 NO OUTPUT CONTROL FOR STRESS PERIOD   10   TIME STEP    5

 WELLS WITH REDUCED PUMPING FOR STRESS PERIOD    10 TIME STEP     5
   LAY   ROW   COL         APPL.Q          ACT.Q        GW-HEAD       CELL-BOT
     1    92    77  -0.230952E+04  -0.588599E+03  -0.850453E+02  -0.930000E+02


 SOLVING FOR HEAD 
                                                   Max.-Head-Change                        Max.-Flux-Residual
  Residual-Control   Outer-Iter.   Inner-Iter.     Column Row Layer    Max.-Head-Change    Column Row Layer    Max.-Flux-Residual            L2-New               L2-Old           Solver-Max-Delh
          0                 1           3            77   94     1      -0.9001606599E+00      77   94    1      -0.2171416675E+04      0.1203221940E+05      0.6415348980E+02     -0.9001606599E+00
          0                 2           2            77   94     1       0.7770985725E-01      77   94    1       0.2170348820E+03      0.1203156875E+04      0.1203221940E+05      0.7770985725E-01

    ------------------------------------------------
       NWT REQUIRED            2 OUTER ITERATIONS 
       AND A TOTAL OF          5 INNER ITERATIONS.
    ------------------------------------------------

 NO OUTPUT CONTROL FOR STRESS PERIOD   10   TIME STEP    6

 WELLS WITH REDUCED PUMPING FOR STRESS PERIOD    10 TIME STEP     6
   LAY   ROW   COL         APPL.Q          ACT.Q        GW-HEAD       CELL-BOT
     1    92    77  -0.230952E+04  -0.572874E+03  -0.851695E+02  -0.930000E+02


 SOLVING FOR HEAD 
                                                   Max.-Head-Change                        Max.-Flux-Residual
  Residual-Control   Outer-Iter.   Inner-Iter.     Column Row Layer    Max.-Head-Change    Column Row Layer    Max.-Flux-Residual            L2-New               L2-Old           Solver-Max-Delh
          0                 1           3            77   94     1      -0.8994832506E+00      77   94    1      -0.2169693410E+04      0.1161501822E+05      0.6015388367E+02     -0.8994832506E+00
          0                 2           2            77   94     1       0.7765139850E-01      77   94    1       0.2168627139E+03      0.1161002480E+04      0.1161501822E+05      0.7765139850E-01

    ------------------------------------------------
       NWT REQUIRED            2 OUTER ITERATIONS 
       AND A TOTAL OF          5 INNER ITERATIONS.
    ------------------------------------------------

 NO OUTPUT CONTROL FOR STRESS PERIOD   10   TIME STEP    7

 WELLS WITH REDUCED PUMPING FOR STRESS PERIOD    10 TIME STEP     7
   LAY   ROW   COL         APPL.Q          ACT.Q        GW-HEAD       CELL-BOT
     1    92    77  -0.230952E+04  -0.564670E+03  -0.852347E+02  -0.930000E+02


 SOLVING FOR HEAD 
                                                   Max.-Head-Change                        Max.-Flux-Residual
  Residual-Control   Outer-Iter.   Inner-Iter.     Column Row Layer    Max.-Head-Change    Column Row Layer    Max.-Flux-Residual            L2-New               L2-Old           Solver-Max-Delh
          0                 1           3            77   94     1      -0.8988065900E+00      77   94    1      -0.2167972156E+04      0.1129344114E+05      0.5804717217E+02     -0.8988065900E+00
          0                 2           2            77   94     1       0.7759300524E-01      77   94    1       0.2166907470E+03      0.1138818111E+04      0.1129344114E+05      0.7759300524E-01

    ------------------------------------------------
       NWT REQUIRED            2 OUTER ITERATIONS 
       AND A TOTAL OF          5 INNER ITERATIONS.
    ------------------------------------------------

 NO OUTPUT CONTROL FOR STRESS PERIOD   10   TIME STEP    8

 WELLS WITH REDUCED PUMPING FOR STRESS PERIOD    10 TIME STEP     8
   LAY   ROW   COL         APPL.Q          ACT.Q        GW-HEAD       CELL-BOT
     1    92    77  -0.230952E+04  -0.560221E+03  -0.852702E+02  -0.930000E+02


 SOLVING FOR HEAD 
                                                   Max.-Head-Change                        Max.-Flux-Residual
  Residual-Control   Outer-Iter.   Inner-Iter.     Column Row Layer    Max.-Head-Change    Column Row Layer    Max.-Flux-Residual            L2-New               L2-Old           Solver-Max-Delh
          0                 1           3            77   94     1      -0.8981307017E+00      77   94    1      -0.2166252967E+04      0.1103405317E+05      0.5693730036E+02     -0.8981307017E+00
          0                 2           2            77   94     1       0.7753467849E-01      77   94    1       0.2165189863E+03      0.1113200480E+04      0.1103405317E+05      0.7753467849E-01

    ------------------------------------------------
       NWT REQUIRED            2 OUTER ITERATIONS 
       AND A TOTAL OF          5 INNER ITERATIONS.
    ------------------------------------------------

 NO OUTPUT CONTROL FOR STRESS PERIOD   10   TIME STEP    9

 WELLS WITH REDUCED PUMPING FOR STRESS PERIOD    10 TIME STEP     9
   LAY   ROW   COL         APPL.Q          ACT.Q        GW-HEAD       CELL-BOT
     1    92    77  -0.230952E+04  -0.557661E+03  -0.852906E+02  -0.930000E+02


 SOLVING FOR HEAD 
                                                   Max.-Head-Change                        Max.-Flux-Residual
  Residual-Control   Outer-Iter.   Inner-Iter.     Column Row Layer    Max.-Head-Change    Column Row Layer    Max.-Flux-Residual            L2-New               L2-Old           Solver-Max-Delh
          0                 1           3            77   94     1      -0.8974555186E+00      77   94    1      -0.2164535677E+04      0.1081836576E+05      0.5565773294E+02     -0.8974555186E+00
          0                 2           2            77   94     1       0.7747641207E-01      77   94    1       0.2163474153E+03      0.1081477075E+04      0.1081836576E+05      0.7747641207E-01

    ------------------------------------------------
       NWT REQUIRED            2 OUTER ITERATIONS 
       AND A TOTAL OF          5 INNER ITERATIONS.
    ------------------------------------------------

 OUTPUT CONTROL FOR STRESS PERIOD   10   TIME STEP   10
    SAVE HEAD FOR ALL LAYERS

 WELLS WITH REDUCED PUMPING FOR STRESS PERIOD    10 TIME STEP    10
   LAY   ROW   COL         APPL.Q          ACT.Q        GW-HEAD       CELL-BOT
     1    92    77  -0.230952E+04  -0.556058E+03  -0.853035E+02  -0.930000E+02


 HEAD WILL BE SAVED ON UNIT   51 AT END OF TIME STEP   10, STRESS PERIOD   10
1
  VOLUMETRIC BUDGET FOR ENTIRE MODEL AT END OF TIME STEP   10, STRESS PERIOD  10
  ------------------------------------------------------------------------------

     CUMULATIVE VOLUMES      L**3       RATES FOR THIS TIME STEP      L**3/T
     ------------------                 ------------------------

           IN:                                      IN:
           ---                                      ---
             STORAGE =   162838976.0000               STORAGE =      530544.0000
       CONSTANT HEAD =    14417203.0000         CONSTANT HEAD =       49335.4844
               WELLS =           0.0000                 WELLS =           0.0000
              DRAINS =           0.0000                DRAINS =           0.0000
                  ET =           0.0000                    ET =           0.0000
            RECHARGE =    58025896.0000              RECHARGE =      150269.7344

            TOTAL IN =   235282080.0000              TOTAL IN =      730149.2500

          OUT:                                     OUT:
          ----                                     ----
             STORAGE =    77027712.0000               STORAGE =       38618.2969
       CONSTANT HEAD =           0.0000         CONSTANT HEAD =           0.0000
               WELLS =   104786272.0000                 WELLS =      519895.2188
              DRAINS =    34225832.0000                DRAINS =      117655.5234
                  ET =    18994976.0000                    ET =       51527.5508
            RECHARGE =       81860.0000              RECHARGE =           0.0000

           TOTAL OUT =   235116640.0000             TOTAL OUT =      727696.5625

            IN - OUT =      165440.0000              IN - OUT =        2452.6875

 PERCENT DISCREPANCY =           0.07     PERCENT DISCREPANCY =           0.34






         TIME SUMMARY AT END OF TIME STEP   10 IN STRESS PERIOD   10
                    SECONDS     MINUTES      HOURS       DAYS        YEARS
                    -----------------------------------------------------------
   TIME STEP LENGTH 2.62656E+05  4377.6      72.960      3.0400     8.32307E-03
 STRESS PERIOD TIME 2.62656E+06  43776.      729.60      30.400     8.32307E-02
         TOTAL TIME 2.62656E+07 4.37760E+05  7296.0      304.00     0.83231    
1
1
                            STRESS PERIOD NO.   11, LENGTH =   30.40000    
                            -----------------------------------------------

                              NUMBER OF TIME STEPS =    10

                               MULTIPLIER FOR DELT =     1.000

                            INITIAL TIME STEP SIZE =   3.040000    

 WELL NO.  LAYER   ROW   COL   STRESS RATE         
 --------------------------------------------------
      1      1     69    225      -864.0    
      2      1     71    224      -6048.    
      3      1     74    220      -6134.    
      4      1     73    220       0.000    
      5      1     71    223      -6221.    
      6      1     71    223      -7344.    
      7      1     72    223      -6394.    
      8      1     92    173      -6653.    
      9      1     94    174      -5875.    
     10      1     93    175       0.000    
     11      1    203    328      -5875.    
     12      1    438    460      -2539.    
     13      1    436    461      -2539.    
     14      1    410    454      -2539.    
     15      1    433    460      -2539.    
     16      1    431    462      -2539.    
     17      1    417    459      -2539.    
     18      1    418    458      -2539.    
     19      1    414    455      -2539.    
     20      1    443    464      -2539.    
     21      1    379    425      -2539.    
     22      1    362    405      -2539.    
     23      1    361    405      -2539.    
     24      1    362    406      -2539.    
     25      1    363    408      -2539.    
     26      1    364    410      -2539.    
     27      1    369    418      -2539.    
     28      1    367    417      -2539.    
     29      1    365    415      -2539.    
     30      1    402    447      -2539.    
     31      1    400    446      -2539.    
     32      1    392    444      -2539.    
     33      1    391    441      -2539.    
     34      1    403    448      -2539.    
     35      1    405    447      -2539.    
     36      1    362    410      -2539.    
     37      1    362    411      -2539.    
     38      1    363    412      -2539.    
     39      1    375    421      -2539.    
     40      1    383    430      -2539.    
     41      1    397    445      -2539.    
     42      1    360    403      -2539.    
     43      1    350    401      -2539.    
     44      1    346    393      -3589.    
     45      1    333    387      -3589.    
     46      1    328    384      -3589.    
     47      1    326    383      -3589.    
     48      1    323    378      -3589.    
     49      1    321    378      -3589.    
     50      1    322    376      -3589.    
     51      1    316    374      -3589.    
     52      1    311    371      -3589.    
     53      1    307    369      -3589.    
     54      1    305    368      -3589.    
     55      1    303    368      -3589.    
     56      1    300    369      -3589.    
     57      1    293    364      -3589.    
     58      1    292    362      -3589.    
     59      1    278    350      -3589.    
     60      1    274    351      -3589.    
     61      1    273    350      -3589.    
     62      1    271    350      -3589.    
     63      1    267    348      -3589.    
     64      1    263    348      -3589.    
     65      1    263    348      -3589.    
     66      1    248    347      -3589.    
     67      1    243    342      -3589.    
     68      1    242    339      -3589.    
     69      1    238    341      -3589.    
     70      1    233    340      -3589.    
     71      1    232    340      -3589.    
     72      1    229    341      -3589.    
     73      1    227    341      -3589.    
     74      1    219    342      -3589.    
     75      1    219    336      -3589.    
     76      1    199    329      -3589.    
     77      1    191    332      -4532.    
     78      1    190    332      -4532.    
     79      1    130    310      -4532.    
     80      1    123    305      -4532.    
     81      1    104    289      -4532.    
     82      1     96    287      -3788.    
     83      1     95    284      -3788.    
     84      1     95    280      -3788.    
     85      1     93    276      -3788.    
     86      1     94    275      -3788.    
     87      1     90    277      -3788.    
     88      1     90    273      -3788.    
     89      1     86    271      -3788.    
     90      1     85    270      -3788.    
     91      1     84    265      -3788.    
     92      1     85    265      -3788.    
     93      1     84    264      -3788.    
     94      1     79    263      -3788.    
     95      1     79    263      -3788.    
     96      1     76    262      -3788.    
     97      1     73    257      -3788.    
     98      1     74    255      -3788.    
     99      1     71    255      -3788.    
    100      1     66    253      -3788.    
    101      1     68    252      -3788.    
    102      1     69    250      -3788.    
    103      1     65    248      -3788.    
    104      1     68    248      -3788.    
    105      1     69    247      -3788.    
    106      1     73    247      -3788.    
    107      1     64    246      -3788.    
    108      1     69    245      -3788.    
    109      1     72    245      -3788.    
    110      1     69    241      -3788.    
    111      1     73    238      -3788.    
    112      1     70    238      -3788.    
    113      1     76    263      -3788.    
    114      1     66    232      -2343.    
    115      1     69    229      -2343.    
    116      1     71    228      -2343.    
    117      1     69    227      -2343.    
    118      1     72    219      -2343.    
    119      1     72    218      -2343.    
    120      1     72    218      -2343.    
    121      1     73    217      -2343.    
    122      1     77    219      -2343.    
    123      1     78    219      -2343.    
    124      1     83    213      -2343.    
    125      1     77    213      -2343.    
    126      1     81    211      -2343.    
    127      1     81    210      -2343.    
    128      1     81    210      -2343.    
    129      1     82    208      -2343.    
    130      1     80    205      -2343.    
    131      1     86    202      -2343.    
    132      1     84    200      -2343.    
    133      1     89    200      -2343.    
    134      1     89    199      -2343.    
    135      1     88    199      -2343.    
    136      1     86    199      -2343.    
    137      1     85    199      -2343.    
    138      1     82    197      -2343.    
    139      1     86    197      -2343.    
    140      1     88    198      -2343.    
    141      1     90    192      -2343.    
    142      1     89    191      -2343.    
    143      1     84    192      -2343.    
    144      1     91    189      -2343.    
    145      1     92    185      -2343.    
    146      1     87    183      -2343.    
    147      1     92    182      -2343.    
    148      1     90    182      -2343.    
    149      1     88    179      -2343.    
    150      1     89    176      -2343.    
    151      1     92    172      -2343.    
    152      1     93    164      -2343.    
    153      1     94    162      -2343.    
    154      1    103    156      -2343.    
    155      1    103    156      -2343.    
    156      1     96    154      -2343.    
    157      1     97    153      -2343.    
    158      1    122    139      -2343.    
    159      1     92     77      -2343.    
    160      1     94     77      -2343.    
    161      1     94     73      -2343.    
    162      1     97    152      -2343.    
    163      1    118    337      -666.7    
    164      1    133    319      -2678.    
    165      1    131    320      -3951.    
    166      1    133    321      -2956.    
    167      1    161    329      -2141.    
    168      1    178    330      -551.0    
    169      1    163    330      -1122.    
    170      1    131    320      -2473.    
    171      1    129    315      -3937.    
    172      1    162    329      -1959.    
    173      1    131    311      -826.1    
    174      1    221    340      -1994.    
    175      1    220    340      -1034.    
    176      1    221    340      -667.7    
    177      1    137    322      -2082.    
    178      1    137    321      -1407.    
    179      1    185    329      -2012.    
    180      1    183    329      -1473.    
    181      1    175    329      -585.3    
    182      1     79    243      -1490.    
    183      1     77    245      -2414.    
    184      1    199    329      -1617.    
    185      1    198    330      -2514.    
    186      1    140    328      -972.1    
    187      1    143    327      -863.6    
    188      1    139    327      -1331.    

    188 WELLS

 REUSING NON-PARAMETER DRAINS FROM LAST STRESS PERIOD

   1061 DRAINS

 REUSING SURF FROM LAST STRESS PERIOD

 REUSING EVTR FROM LAST STRESS PERIOD

 REUSING EXDP FROM LAST STRESS PERIOD



                           RECHARGE
 READING ON UNIT   19 WITH FORMAT: (510E15.6)          

 SOLVING FOR HEAD 
                                                   Max.-Head-Change                        Max.-Flux-Residual
  Residual-Control   Outer-Iter.   Inner-Iter.     Column Row Layer    Max.-Head-Change    Column Row Layer    Max.-Flux-Residual            L2-New               L2-Old           Solver-Max-Delh
          0                 1           3           263   79     1       0.2513283948E+01      77   94    1      -0.2196219914E+04      0.1171419856E+05      0.5410292627E+02      0.2513283948E+01
          0                 2           2           263   79     1      -0.2179534107E+00      77   94    1       0.2195127081E+03      0.1170407385E+04      0.1171419856E+05     -0.2179534107E+00
          0                 3           2           457  456     1       0.1533171950E-01      77   94    1       0.1097483541E+02      0.5851350613E+02      0.1170407385E+04      0.1533171950E-01

    ------------------------------------------------
       NWT REQUIRED            3 OUTER ITERATIONS 
       AND A TOTAL OF          7 INNER ITERATIONS.
    ------------------------------------------------

 NO OUTPUT CONTROL FOR STRESS PERIOD   11   TIME STEP    1

 WELLS WITH REDUCED PUMPING FOR STRESS PERIOD    11 TIME STEP     1
   LAY   ROW   COL         APPL.Q          ACT.Q        GW-HEAD       CELL-BOT
     1    92    77  -0.234339E+04  -0.559389E+03  -0.853416E+02  -0.930000E+02


 SOLVING FOR HEAD 
                                                   Max.-Head-Change                        Max.-Flux-Residual
  Residual-Control   Outer-Iter.   Inner-Iter.     Column Row Layer    Max.-Head-Change    Column Row Layer    Max.-Flux-Residual            L2-New               L2-Old           Solver-Max-Delh
          0                 1           3            77   94     1      -0.9099484324E+00      77   94    1      -0.2194487174E+04      0.1091737223E+05      0.5851350613E+02     -0.9099484324E+00
          0                 2           2            77   94     1       0.7855447100E-01      77   94    1       0.2193395931E+03      0.1092946628E+04      0.1091737223E+05      0.7855447100E-01

    ------------------------------------------------
       NWT REQUIRED            2 OUTER ITERATIONS 
       AND A TOTAL OF          5 INNER ITERATIONS.
    ------------------------------------------------

 NO OUTPUT CONTROL FOR STRESS PERIOD   11   TIME STEP    2

 WELLS WITH REDUCED PUMPING FOR STRESS PERIOD    11 TIME STEP     2
   LAY   ROW   COL         APPL.Q          ACT.Q        GW-HEAD       CELL-BOT
     1    92    77  -0.234339E+04  -0.556646E+03  -0.853633E+02  -0.930000E+02


 SOLVING FOR HEAD 
                                                   Max.-Head-Change                        Max.-Flux-Residual
  Residual-Control   Outer-Iter.   Inner-Iter.     Column Row Layer    Max.-Head-Change    Column Row Layer    Max.-Flux-Residual            L2-New               L2-Old           Solver-Max-Delh
          0                 1           3            77   94     1      -0.9092651786E+00      77   94    1      -0.2192748270E+04      0.1068907839E+05      0.5463903075E+02     -0.9092651786E+00
          0                 2           2            77   94     1       0.7849550811E-01      77   94    1       0.2191658636E+03      0.1101712798E+04      0.1068907839E+05      0.7849550811E-01

    ------------------------------------------------
       NWT REQUIRED            2 OUTER ITERATIONS 
       AND A TOTAL OF          5 INNER ITERATIONS.
    ------------------------------------------------

 NO OUTPUT CONTROL FOR STRESS PERIOD   11   TIME STEP    3

 WELLS WITH REDUCED PUMPING FOR STRESS PERIOD    11 TIME STEP     3
   LAY   ROW   COL         APPL.Q          ACT.Q        GW-HEAD       CELL-BOT
     1    92    77  -0.234339E+04  -0.554972E+03  -0.853765E+02  -0.930000E+02


 SOLVING FOR HEAD 
                                                   Max.-Head-Change                        Max.-Flux-Residual
  Residual-Control   Outer-Iter.   Inner-Iter.     Column Row Layer    Max.-Head-Change    Column Row Layer    Max.-Flux-Residual            L2-New               L2-Old           Solver-Max-Delh
          0                 1           3            77   94     1      -0.9085826656E+00      77   94    1      -0.2191011354E+04      0.1052231552E+05      0.5508158625E+02     -0.9085826656E+00
          0                 2           2            77   94     1       0.7843660805E-01      77   94    1       0.2189923334E+03      0.1056230867E+04      0.1052231552E+05      0.7843660805E-01

    ------------------------------------------------
       NWT REQUIRED            2 OUTER ITERATIONS 
       AND A TOTAL OF          5 INNER ITERATIONS.
    ------------------------------------------------

 NO OUTPUT CONTROL FOR STRESS PERIOD   11   TIME STEP    4

 WELLS WITH REDUCED PUMPING FOR STRESS PERIOD    11 TIME STEP     4
   LAY   ROW   COL         APPL.Q          ACT.Q        GW-HEAD       CELL-BOT
     1    92    77  -0.234339E+04  -0.553839E+03  -0.853855E+02  -0.930000E+02


 SOLVING FOR HEAD 
                                                   Max.-Head-Change                        Max.-Flux-Residual
  Residual-Control   Outer-Iter.   Inner-Iter.     Column Row Layer    Max.-Head-Change    Column Row Layer    Max.-Flux-Residual            L2-New               L2-Old           Solver-Max-Delh
          0                 1           3            77   94     1      -0.9079009181E+00      77   94    1      -0.2189276485E+04      0.1038525494E+05      0.5280983093E+02     -0.9079009181E+00
          0                 2           2            77   94     1       0.7837777540E-01      77   94    1       0.2188190080E+03      0.1038308348E+04      0.1038525494E+05      0.7837777540E-01

    ------------------------------------------------
       NWT REQUIRED            2 OUTER ITERATIONS 
       AND A TOTAL OF          5 INNER ITERATIONS.
    ------------------------------------------------

 NO OUTPUT CONTROL FOR STRESS PERIOD   11   TIME STEP    5

 WELLS WITH REDUCED PUMPING FOR STRESS PERIOD    11 TIME STEP     5
   LAY   ROW   COL         APPL.Q          ACT.Q        GW-HEAD       CELL-BOT
     1    92    77  -0.234339E+04  -0.552981E+03  -0.853923E+02  -0.930000E+02


 SOLVING FOR HEAD 
                                                   Max.-Head-Change                        Max.-Flux-Residual
  Residual-Control   Outer-Iter.   Inner-Iter.     Column Row Layer    Max.-Head-Change    Column Row Layer    Max.-Flux-Residual            L2-New               L2-Old           Solver-Max-Delh
          0                 1           3            77   94     1      -0.9072199307E+00      77   94    1      -0.2187543650E+04      0.1026558958E+05      0.5191905588E+02     -0.9072199307E+00
          0                 2           2           205   75     1      -0.1275396290E+00      77   94    1       0.2186458856E+03      0.1030272020E+04      0.1026558958E+05     -0.1275396290E+00
          0                 3           2           457  456     1       0.1718750457E-01      77   94    1       0.1093151646E+02      0.5151257702E+02      0.1030272020E+04      0.1718750457E-01

    ------------------------------------------------
       NWT REQUIRED            3 OUTER ITERATIONS 
       AND A TOTAL OF          7 INNER ITERATIONS.
    ------------------------------------------------

 NO OUTPUT CONTROL FOR STRESS PERIOD   11   TIME STEP    6

 WELLS WITH REDUCED PUMPING FOR STRESS PERIOD    11 TIME STEP     6
   LAY   ROW   COL         APPL.Q          ACT.Q        GW-HEAD       CELL-BOT
     1    92    77  -0.234339E+04  -0.552269E+03  -0.853980E+02  -0.930000E+02


 SOLVING FOR HEAD 
                                                   Max.-Head-Change                        Max.-Flux-Residual
  Residual-Control   Outer-Iter.   Inner-Iter.     Column Row Layer    Max.-Head-Change    Column Row Layer    Max.-Flux-Residual            L2-New               L2-Old           Solver-Max-Delh
          0                 1           3            77   94     1      -0.9065428964E+00      77   94    1      -0.2185820974E+04      0.1015881922E+05      0.5151257702E+02     -0.9065428964E+00
          0                 2           2            77   94     1       0.7826058320E-01      77   94    1       0.2184737780E+03      0.1015633230E+04      0.1015881922E+05      0.7826058320E-01

    ------------------------------------------------
       NWT REQUIRED            2 OUTER ITERATIONS 
       AND A TOTAL OF          5 INNER ITERATIONS.
    ------------------------------------------------

 NO OUTPUT CONTROL FOR STRESS PERIOD   11   TIME STEP    7

 WELLS WITH REDUCED PUMPING FOR STRESS PERIOD    11 TIME STEP     7
   LAY   ROW   COL         APPL.Q          ACT.Q        GW-HEAD       CELL-BOT
     1    92    77  -0.234339E+04  -0.551628E+03  -0.854031E+02  -0.930000E+02


 SOLVING FOR HEAD 
                                                   Max.-Head-Change                        Max.-Flux-Residual
  Residual-Control   Outer-Iter.   Inner-Iter.     Column Row Layer    Max.-Head-Change    Column Row Layer    Max.-Flux-Residual            L2-New               L2-Old           Solver-Max-Delh
          0                 1           3            77   94     1      -0.9058633885E+00      77   94    1      -0.2184092107E+04      0.1006058918E+05      0.5078115863E+02     -0.9058633885E+00
          0                 2           2            77   94     1       0.7820194344E-01      77   94    1       0.2183010503E+03      0.1006084700E+04      0.1006058918E+05      0.7820194344E-01

    ------------------------------------------------
       NWT REQUIRED            2 OUTER ITERATIONS 
       AND A TOTAL OF          5 INNER ITERATIONS.
    ------------------------------------------------

 NO OUTPUT CONTROL FOR STRESS PERIOD   11   TIME STEP    8

 WELLS WITH REDUCED PUMPING FOR STRESS PERIOD    11 TIME STEP     8
   LAY   ROW   COL         APPL.Q          ACT.Q        GW-HEAD       CELL-BOT
     1    92    77  -0.234339E+04  -0.551030E+03  -0.854078E+02  -0.930000E+02


 SOLVING FOR HEAD 
                                                   Max.-Head-Change                        Max.-Flux-Residual
  Residual-Control   Outer-Iter.   Inner-Iter.     Column Row Layer    Max.-Head-Change    Column Row Layer    Max.-Flux-Residual            L2-New               L2-Old           Solver-Max-Delh
          0                 1           3            77   94     1      -0.9051846276E+00      77   94    1      -0.2182365238E+04      0.9969806028E+04      0.5030219540E+02     -0.9051846276E+00
          0                 2           2            77   94     1       0.7814336904E-01      77   94    1       0.2181285237E+03      0.1001259572E+04      0.9969806028E+04      0.7814336904E-01

    ------------------------------------------------
       NWT REQUIRED            2 OUTER ITERATIONS 
       AND A TOTAL OF          5 INNER ITERATIONS.
    ------------------------------------------------

 NO OUTPUT CONTROL FOR STRESS PERIOD   11   TIME STEP    9

 WELLS WITH REDUCED PUMPING FOR STRESS PERIOD    11 TIME STEP     9
   LAY   ROW   COL         APPL.Q          ACT.Q        GW-HEAD       CELL-BOT
     1    92    77  -0.234339E+04  -0.550456E+03  -0.854124E+02  -0.930000E+02


 SOLVING FOR HEAD 
                                                   Max.-Head-Change                        Max.-Flux-Residual
  Residual-Control   Outer-Iter.   Inner-Iter.     Column Row Layer    Max.-Head-Change    Column Row Layer    Max.-Flux-Residual            L2-New               L2-Old           Solver-Max-Delh
          0                 1           3            77   94     1      -0.9045066375E+00      77   94    1      -0.2180640427E+04      0.9884460268E+04      0.5006184779E+02     -0.9045066375E+00
          0                 2           2            77   94     1       0.7808486151E-01      77   94    1       0.2179562032E+03      0.9884890313E+03      0.9884460268E+04      0.7808486151E-01

    ------------------------------------------------
       NWT REQUIRED            2 OUTER ITERATIONS 
       AND A TOTAL OF          5 INNER ITERATIONS.
    ------------------------------------------------

 OUTPUT CONTROL FOR STRESS PERIOD   11   TIME STEP   10
    SAVE HEAD FOR ALL LAYERS

 WELLS WITH REDUCED PUMPING FOR STRESS PERIOD    11 TIME STEP    10
   LAY   ROW   COL         APPL.Q          ACT.Q        GW-HEAD       CELL-BOT
     1    92    77  -0.234339E+04  -0.549898E+03  -0.854168E+02  -0.930000E+02


 HEAD WILL BE SAVED ON UNIT   51 AT END OF TIME STEP   10, STRESS PERIOD   11
1
  VOLUMETRIC BUDGET FOR ENTIRE MODEL AT END OF TIME STEP   10, STRESS PERIOD  11
  ------------------------------------------------------------------------------

     CUMULATIVE VOLUMES      L**3       RATES FOR THIS TIME STEP      L**3/T
     ------------------                 ------------------------

           IN:                                      IN:
           ---                                      ---
             STORAGE =   178228848.0000               STORAGE =      499923.0938
       CONSTANT HEAD =    15920679.0000         CONSTANT HEAD =       49553.5859
               WELLS =           0.0000                 WELLS =           0.0000
              DRAINS =           0.0000                DRAINS =           0.0000
                  ET =           0.0000                    ET =           0.0000
            RECHARGE =    62149536.0000              RECHARGE =      135646.2656

            TOTAL IN =   256299056.0000              TOTAL IN =      685122.9375

          OUT:                                     OUT:
          ----                                     ----
             STORAGE =    78145168.0000               STORAGE =       34893.0469
       CONSTANT HEAD =           0.0000         CONSTANT HEAD =           0.0000
               WELLS =   119673288.0000                 WELLS =      489700.9062
              DRAINS =    37698532.0000                DRAINS =      111563.4141
                  ET =    20477086.0000                    ET =       46645.9492
            RECHARGE =       81860.0000              RECHARGE =           0.0000

           TOTAL OUT =   256075936.0000             TOTAL OUT =      682803.3125

            IN - OUT =      223120.0000              IN - OUT =        2319.6250

 PERCENT DISCREPANCY =           0.09     PERCENT DISCREPANCY =           0.34






         TIME SUMMARY AT END OF TIME STEP   10 IN STRESS PERIOD   11
                    SECONDS     MINUTES      HOURS       DAYS        YEARS
                    -----------------------------------------------------------
   TIME STEP LENGTH 2.62656E+05  4377.6      72.960      3.0400     8.32307E-03
 STRESS PERIOD TIME 2.62656E+06  43776.      729.60      30.400     8.32307E-02
         TOTAL TIME 2.88922E+07 4.81536E+05  8025.6      334.40     0.91554    
1
1
                            STRESS PERIOD NO.   12, LENGTH =   30.40000    
                            -----------------------------------------------

                              NUMBER OF TIME STEPS =    10

                               MULTIPLIER FOR DELT =     1.000

                            INITIAL TIME STEP SIZE =   3.040000    

 WELL NO.  LAYER   ROW   COL   STRESS RATE         
 --------------------------------------------------
      1      1     69    225      -950.4    
      2      1     71    224      -6048.    
      3      1     74    220      -6134.    
      4      1     73    220       0.000    
      5      1     71    223      -6221.    
      6      1     71    223      -7344.    
      7      1     72    223      -6394.    
      8      1     92    173      -6653.    
      9      1     94    174      -5875.    
     10      1     93    175       0.000    
     11      1    203    328      -5875.    
     12      1    438    460      -0.000    
     13      1    436    461      -0.000    
     14      1    410    454      -0.000    
     15      1    433    460      -0.000    
     16      1    431    462      -0.000    
     17      1    417    459      -0.000    
     18      1    418    458      -0.000    
     19      1    414    455      -0.000    
     20      1    443    464      -0.000    
     21      1    379    425      -0.000    
     22      1    362    405      -0.000    
     23      1    361    405      -0.000    
     24      1    362    406      -0.000    
     25      1    363    408      -0.000    
     26      1    364    410      -0.000    
     27      1    369    418      -0.000    
     28      1    367    417      -0.000    
     29      1    365    415      -0.000    
     30      1    402    447      -0.000    
     31      1    400    446      -0.000    
     32      1    392    444      -0.000    
     33      1    391    441      -0.000    
     34      1    403    448      -0.000    
     35      1    405    447      -0.000    
     36      1    362    410      -0.000    
     37      1    362    411      -0.000    
     38      1    363    412      -0.000    
     39      1    375    421      -0.000    
     40      1    383    430      -0.000    
     41      1    397    445      -0.000    
     42      1    360    403      -0.000    
     43      1    350    401      -0.000    
     44      1    346    393      -49.88    
     45      1    333    387      -49.88    
     46      1    328    384      -49.88    
     47      1    326    383      -49.88    
     48      1    323    378      -49.88    
     49      1    321    378      -49.88    
     50      1    322    376      -49.88    
     51      1    316    374      -49.88    
     52      1    311    371      -49.88    
     53      1    307    369      -49.88    
     54      1    305    368      -49.88    
     55      1    303    368      -49.88    
     56      1    300    369      -49.88    
     57      1    293    364      -49.88    
     58      1    292    362      -49.88    
     59      1    278    350      -49.88    
     60      1    274    351      -49.88    
     61      1    273    350      -49.88    
     62      1    271    350      -49.88    
     63      1    267    348      -49.88    
     64      1    263    348      -49.88    
     65      1    263    348      -49.88    
     66      1    248    347      -49.88    
     67      1    243    342      -49.88    
     68      1    242    339      -49.88    
     69      1    238    341      -49.88    
     70      1    233    340      -49.88    
     71      1    232    340      -49.88    
     72      1    229    341      -49.88    
     73      1    227    341      -49.88    
     74      1    219    342      -49.88    
     75      1    219    336      -49.88    
     76      1    199    329      -49.88    
     77      1    191    332      -109.2    
     78      1    190    332      -109.2    
     79      1    130    310      -109.2    
     80      1    123    305      -109.2    
     81      1    104    289      -109.2    
     82      1     96    287      -510.6    
     83      1     95    284      -510.6    
     84      1     95    280      -510.6    
     85      1     93    276      -510.6    
     86      1     94    275      -510.6    
     87      1     90    277      -510.6    
     88      1     90    273      -510.6    
     89      1     86    271      -510.6    
     90      1     85    270      -510.6    
     91      1     84    265      -510.6    
     92      1     85    265      -510.6    
     93      1     84    264      -510.6    
     94      1     79    263      -510.6    
     95      1     79    263      -510.6    
     96      1     76    262      -510.6    
     97      1     73    257      -510.6    
     98      1     74    255      -510.6    
     99      1     71    255      -510.6    
    100      1     66    253      -510.6    
    101      1     68    252      -510.6    
    102      1     69    250      -510.6    
    103      1     65    248      -510.6    
    104      1     68    248      -510.6    
    105      1     69    247      -510.6    
    106      1     73    247      -510.6    
    107      1     64    246      -510.6    
    108      1     69    245      -510.6    
    109      1     72    245      -510.6    
    110      1     69    241      -510.6    
    111      1     73    238      -510.6    
    112      1     70    238      -510.6    
    113      1     76    263      -510.6    
    114      1     66    232      -620.9    
    115      1     69    229      -620.9    
    116      1     71    228      -620.9    
    117      1     69    227      -620.9    
    118      1     72    219      -620.9    
    119      1     72    218      -620.9    
    120      1     72    218      -620.9    
    121      1     73    217      -620.9    
    122      1     77    219      -620.9    
    123      1     78    219      -620.9    
    124      1     83    213      -620.9    
    125      1     77    213      -620.9    
    126      1     81    211      -620.9    
    127      1     81    210      -620.9    
    128      1     81    210      -620.9    
    129      1     82    208      -620.9    
    130      1     80    205      -620.9    
    131      1     86    202      -620.9    
    132      1     84    200      -620.9    
    133      1     89    200      -620.9    
    134      1     89    199      -620.9    
    135      1     88    199      -620.9    
    136      1     86    199      -620.9    
    137      1     85    199      -620.9    
    138      1     82    197      -620.9    
    139      1     86    197      -620.9    
    140      1     88    198      -620.9    
    141      1     90    192      -620.9    
    142      1     89    191      -620.9    
    143      1     84    192      -620.9    
    144      1     91    189      -620.9    
    145      1     92    185      -620.9    
    146      1     87    183      -620.9    
    147      1     92    182      -620.9    
    148      1     90    182      -620.9    
    149      1     88    179      -620.9    
    150      1     89    176      -620.9    
    151      1     92    172      -620.9    
    152      1     93    164      -620.9    
    153      1     94    162      -620.9    
    154      1    103    156      -620.9    
    155      1    103    156      -620.9    
    156      1     96    154      -620.9    
    157      1     97    153      -620.9    
    158      1    122    139      -620.9    
    159      1     92     77      -620.9    
    160      1     94     77      -620.9    
    161      1     94     73      -620.9    
    162      1     97    152      -620.9    
    163      1    118    337      -666.7    
    164      1    133    319      -2678.    
    165      1    131    320      -3951.    
    166      1    133    321      -2956.    
    167      1    161    329      -2141.    
    168      1    178    330      -551.0    
    169      1    163    330      -1122.    
    170      1    131    320      -2473.    
    171      1    129    315      -3937.    
    172      1    162    329      -1959.    
    173      1    131    311      -826.1    
    174      1    221    340      -1994.    
    175      1    220    340      -1034.    
    176      1    221    340      -667.7    
    177      1    137    322      -2082.    
    178      1    137    321      -1407.    
    179      1    185    329      -2012.    
    180      1    183    329      -1473.    
    181      1    175    329      -585.3    
    182      1     79    243      -1490.    
    183      1     77    245      -2414.    
    184      1    199    329      -1617.    
    185      1    198    330      -2514.    
    186      1    140    328      -972.1    
    187      1    143    327      -863.6    
    188      1    139    327      -1331.    

    188 WELLS

 REUSING NON-PARAMETER DRAINS FROM LAST STRESS PERIOD

   1061 DRAINS

 REUSING SURF FROM LAST STRESS PERIOD

 REUSING EVTR FROM LAST STRESS PERIOD

 REUSING EXDP FROM LAST STRESS PERIOD



                           RECHARGE
 READING ON UNIT   19 WITH FORMAT: (510E15.6)          

 SOLVING FOR HEAD 
                                                   Max.-Head-Change                        Max.-Flux-Residual
  Residual-Control   Outer-Iter.   Inner-Iter.     Column Row Layer    Max.-Head-Change    Column Row Layer    Max.-Flux-Residual            L2-New               L2-Old           Solver-Max-Delh
          0                 1           3           263   79     1       0.1818629475E+02     348  263    1       0.6931888318E+04      0.3228241424E+05      0.4942363306E+02      0.1818629475E+02
          0                 2           2           263   79     1      -0.1727988355E+01     348  263    1      -0.7980534679E+03      0.3351063441E+04      0.3228241424E+05     -0.1727988355E+01
          0                 3           2           263   79     1      -0.8818847082E-01     348  263    1      -0.4016650433E+02      0.1683366703E+03      0.3351063441E+04     -0.8818847082E-01

    ------------------------------------------------
       NWT REQUIRED            3 OUTER ITERATIONS 
       AND A TOTAL OF          7 INNER ITERATIONS.
    ------------------------------------------------

 NO OUTPUT CONTROL FOR STRESS PERIOD   12   TIME STEP    1

 WELLS WITH REDUCED PUMPING FOR STRESS PERIOD    12 TIME STEP     1
   LAY   ROW   COL         APPL.Q          ACT.Q        GW-HEAD       CELL-BOT
     1    92    77  -0.620891E+03  -0.224103E+03  -0.832094E+02  -0.930000E+02


 SOLVING FOR HEAD 
                                                   Max.-Head-Change                        Max.-Flux-Residual
  Residual-Control   Outer-Iter.   Inner-Iter.     Column Row Layer    Max.-Head-Change    Column Row Layer    Max.-Flux-Residual            L2-New               L2-Old           Solver-Max-Delh
          0                 1           3           263   79     1       0.7021091363E+01     393  346    1       0.2863688985E+04      0.1429363428E+05      0.1683366703E+03      0.7021091363E+01
          0                 2           2           263   79     1      -0.6417832716E+00     393  346    1      -0.2865232541E+03      0.1438011146E+04      0.1429363428E+05     -0.6417832716E+00
          0                 3           2           263   79     1      -0.3248284513E-01     393  346    1      -0.1432730761E+02      0.7199681727E+02      0.1438011146E+04     -0.3248284513E-01

    ------------------------------------------------
       NWT REQUIRED            3 OUTER ITERATIONS 
       AND A TOTAL OF          7 INNER ITERATIONS.
    ------------------------------------------------

 NO OUTPUT CONTROL FOR STRESS PERIOD   12   TIME STEP    2

 WELLS WITH REDUCED PUMPING FOR STRESS PERIOD    12 TIME STEP     2
   LAY   ROW   COL         APPL.Q          ACT.Q        GW-HEAD       CELL-BOT
     1    92    77  -0.620891E+03  -0.287856E+03  -0.815334E+02  -0.930000E+02


 SOLVING FOR HEAD 
                                                   Max.-Head-Change                        Max.-Flux-Residual
  Residual-Control   Outer-Iter.   Inner-Iter.     Column Row Layer    Max.-Head-Change    Column Row Layer    Max.-Flux-Residual            L2-New               L2-Old           Solver-Max-Delh
          0                 1           3           263   79     1       0.2973918376E+01     393  346    1       0.2483563067E+04      0.1085210274E+05      0.7199681727E+02      0.2973918376E+01
          0                 2           2           263   79     1      -0.2599111112E+00     393  346    1      -0.2484959145E+03      0.1089215396E+04      0.1085210274E+05     -0.2599111112E+00
          0                 3           2           457  456     1       0.2013231941E-01     393  346    1      -0.1242583133E+02      0.5462592169E+02      0.1089215396E+04      0.2013231941E-01

    ------------------------------------------------
       NWT REQUIRED            3 OUTER ITERATIONS 
       AND A TOTAL OF          7 INNER ITERATIONS.
    ------------------------------------------------

 NO OUTPUT CONTROL FOR STRESS PERIOD   12   TIME STEP    3

 WELLS WITH REDUCED PUMPING FOR STRESS PERIOD    12 TIME STEP     3
   LAY   ROW   COL         APPL.Q          ACT.Q        GW-HEAD       CELL-BOT
     1    92    77  -0.620891E+03  -0.336821E+03  -0.802649E+02  -0.930000E+02


 SOLVING FOR HEAD 
                                                   Max.-Head-Change                        Max.-Flux-Residual
  Residual-Control   Outer-Iter.   Inner-Iter.     Column Row Layer    Max.-Head-Change    Column Row Layer    Max.-Flux-Residual            L2-New               L2-Old           Solver-Max-Delh
          0                 1           3           263   79     1       0.1429854768E+01     393  346    1       0.2158297651E+04      0.9241946332E+04      0.5462592169E+02      0.1429854768E+01
          0                 2           2           263   79     1      -0.1251367086E+00     393  346    1      -0.2159513717E+03      0.9283340037E+03      0.9241946332E+04     -0.1251367086E+00
          0                 3           2           457  456     1       0.2055518785E-01     393  346    1      -0.1079847061E+02      0.4639877598E+02      0.9283340037E+03      0.2055518785E-01

    ------------------------------------------------
       NWT REQUIRED            3 OUTER ITERATIONS 
       AND A TOTAL OF          7 INNER ITERATIONS.
    ------------------------------------------------

 NO OUTPUT CONTROL FOR STRESS PERIOD   12   TIME STEP    4

 WELLS WITH REDUCED PUMPING FOR STRESS PERIOD    12 TIME STEP     4
   LAY   ROW   COL         APPL.Q          ACT.Q        GW-HEAD       CELL-BOT
     1    92    77  -0.620891E+03  -0.373603E+03  -0.793035E+02  -0.930000E+02


 SOLVING FOR HEAD 
                                                   Max.-Head-Change                        Max.-Flux-Residual
  Residual-Control   Outer-Iter.   Inner-Iter.     Column Row Layer    Max.-Head-Change    Column Row Layer    Max.-Flux-Residual            L2-New               L2-Old           Solver-Max-Delh
          0                 1           3           264   78     1       0.1032735388E+01     383  326    1       0.1893489479E+04      0.8278127671E+04      0.4639877598E+02      0.1032735388E+01
          0                 2           2           264   78     1      -0.9051395564E-01     383  326    1      -0.1894518959E+03      0.8300711801E+03      0.8278127671E+04     -0.9051395564E-01

    ------------------------------------------------
       NWT REQUIRED            2 OUTER ITERATIONS 
       AND A TOTAL OF          5 INNER ITERATIONS.
    ------------------------------------------------

 NO OUTPUT CONTROL FOR STRESS PERIOD   12   TIME STEP    5

 WELLS WITH REDUCED PUMPING FOR STRESS PERIOD    12 TIME STEP     5
   LAY   ROW   COL         APPL.Q          ACT.Q        GW-HEAD       CELL-BOT
     1    92    77  -0.620891E+03  -0.401179E+03  -0.785692E+02  -0.930000E+02


 SOLVING FOR HEAD 
                                                   Max.-Head-Change                        Max.-Flux-Residual
  Residual-Control   Outer-Iter.   Inner-Iter.     Column Row Layer    Max.-Head-Change    Column Row Layer    Max.-Flux-Residual            L2-New               L2-Old           Solver-Max-Delh
          0                 1           3           264   78     1       0.8440780159E+00     383  326    1       0.1704651189E+04      0.7621514824E+04      0.4150702114E+02      0.8440780159E+00
          0                 2           2           264   78     1      -0.7470473927E-01     383  326    1      -0.1705668435E+03      0.7627347102E+03      0.7621514824E+04     -0.7470473927E-01

    ------------------------------------------------
       NWT REQUIRED            2 OUTER ITERATIONS 
       AND A TOTAL OF          5 INNER ITERATIONS.
    ------------------------------------------------

 NO OUTPUT CONTROL FOR STRESS PERIOD   12   TIME STEP    6

 WELLS WITH REDUCED PUMPING FOR STRESS PERIOD    12 TIME STEP     6
   LAY   ROW   COL         APPL.Q          ACT.Q        GW-HEAD       CELL-BOT
     1    92    77  -0.620891E+03  -0.421736E+03  -0.780098E+02  -0.930000E+02


 SOLVING FOR HEAD 
                                                   Max.-Head-Change                        Max.-Flux-Residual
  Residual-Control   Outer-Iter.   Inner-Iter.     Column Row Layer    Max.-Head-Change    Column Row Layer    Max.-Flux-Residual            L2-New               L2-Old           Solver-Max-Delh
          0                 1           3           343  217     1       0.7418038200E+00     383  326    1       0.1540378426E+04      0.7142752448E+04      0.3813958341E+02      0.7418038200E+00
          0                 2           2           343  217     1      -0.6452757506E-01     383  326    1      -0.1541347628E+03      0.7144514469E+03      0.7142752448E+04     -0.6452757506E-01

    ------------------------------------------------
       NWT REQUIRED            2 OUTER ITERATIONS 
       AND A TOTAL OF          5 INNER ITERATIONS.
    ------------------------------------------------

 NO OUTPUT CONTROL FOR STRESS PERIOD   12   TIME STEP    7

 WELLS WITH REDUCED PUMPING FOR STRESS PERIOD    12 TIME STEP     7
   LAY   ROW   COL         APPL.Q          ACT.Q        GW-HEAD       CELL-BOT
     1    92    77  -0.620891E+03  -0.437108E+03  -0.775827E+02  -0.930000E+02


 SOLVING FOR HEAD 
                                                   Max.-Head-Change                        Max.-Flux-Residual
  Residual-Control   Outer-Iter.   Inner-Iter.     Column Row Layer    Max.-Head-Change    Column Row Layer    Max.-Flux-Residual            L2-New               L2-Old           Solver-Max-Delh
          0                 1           3           343  217     1       0.6976714670E+00     383  326    1       0.1397045505E+04      0.6775886696E+04      0.3572205116E+02      0.6976714670E+00
          0                 2           2           343  217     1      -0.6067671305E-01     383  326    1      -0.1397947563E+03      0.6812483663E+03      0.6775886696E+04     -0.6067671305E-01

    ------------------------------------------------
       NWT REQUIRED            2 OUTER ITERATIONS 
       AND A TOTAL OF          5 INNER ITERATIONS.
    ------------------------------------------------

 NO OUTPUT CONTROL FOR STRESS PERIOD   12   TIME STEP    8

 WELLS WITH REDUCED PUMPING FOR STRESS PERIOD    12 TIME STEP     8
   LAY   ROW   COL         APPL.Q          ACT.Q        GW-HEAD       CELL-BOT
     1    92    77  -0.620891E+03  -0.448641E+03  -0.772562E+02  -0.930000E+02


 SOLVING FOR HEAD 
                                                   Max.-Head-Change                        Max.-Flux-Residual
  Residual-Control   Outer-Iter.   Inner-Iter.     Column Row Layer    Max.-Head-Change    Column Row Layer    Max.-Flux-Residual            L2-New               L2-Old           Solver-Max-Delh
          0                 1           3           343  217     1       0.6481055780E+00     383  326    1       0.1271617954E+04      0.6485921903E+04      0.3403838416E+02      0.6481055780E+00
          0                 2           2           343  217     1      -0.5632565354E-01     383  326    1      -0.1272444388E+03      0.6486625613E+03      0.6485921903E+04     -0.5632565354E-01

    ------------------------------------------------
       NWT REQUIRED            2 OUTER ITERATIONS 
       AND A TOTAL OF          5 INNER ITERATIONS.
    ------------------------------------------------

 NO OUTPUT CONTROL FOR STRESS PERIOD   12   TIME STEP    9

 WELLS WITH REDUCED PUMPING FOR STRESS PERIOD    12 TIME STEP     9
   LAY   ROW   COL         APPL.Q          ACT.Q        GW-HEAD       CELL-BOT
     1    92    77  -0.620891E+03  -0.457315E+03  -0.770067E+02  -0.930000E+02


 SOLVING FOR HEAD 
                                                   Max.-Head-Change                        Max.-Flux-Residual
  Residual-Control   Outer-Iter.   Inner-Iter.     Column Row Layer    Max.-Head-Change    Column Row Layer    Max.-Flux-Residual            L2-New               L2-Old           Solver-Max-Delh
          0                 1           3           343  217     1       0.5977790911E+00     383  326    1       0.1161540189E+04      0.6250884994E+04      0.3243446285E+02      0.5977790911E+00
          0                 2           2           343  217     1      -0.5208725632E-01     383  326    1      -0.1162289109E+03      0.6251386656E+03      0.6250884994E+04     -0.5208725632E-01

    ------------------------------------------------
       NWT REQUIRED            2 OUTER ITERATIONS 
       AND A TOTAL OF          5 INNER ITERATIONS.
    ------------------------------------------------

 OUTPUT CONTROL FOR STRESS PERIOD   12   TIME STEP   10
    SAVE HEAD FOR ALL LAYERS

 WELLS WITH REDUCED PUMPING FOR STRESS PERIOD    12 TIME STEP    10
   LAY   ROW   COL         APPL.Q          ACT.Q        GW-HEAD       CELL-BOT
     1    92    77  -0.620891E+03  -0.463844E+03  -0.768164E+02  -0.930000E+02


 HEAD WILL BE SAVED ON UNIT   51 AT END OF TIME STEP   10, STRESS PERIOD   12
1
  VOLUMETRIC BUDGET FOR ENTIRE MODEL AT END OF TIME STEP   10, STRESS PERIOD  12
  ------------------------------------------------------------------------------

     CUMULATIVE VOLUMES      L**3       RATES FOR THIS TIME STEP      L**3/T
     ------------------                 ------------------------

           IN:                                      IN:
           ---                                      ---
             STORAGE =   187058640.0000               STORAGE =      259256.3906
       CONSTANT HEAD =    17430548.0000         CONSTANT HEAD =       49757.1875
               WELLS =           0.0000                 WELLS =           0.0000
              DRAINS =           0.0000                DRAINS =           0.0000
                  ET =           0.0000                    ET =           0.0000
            RECHARGE =    64856136.0000              RECHARGE =       89032.3906

            TOTAL IN =   269345312.0000              TOTAL IN =      398045.9375

          OUT:                                     OUT:
          ----                                     ----
             STORAGE =    81800560.0000               STORAGE =       85299.6250
       CONSTANT HEAD =           0.0000         CONSTANT HEAD =           0.0000
               WELLS =   124080416.0000                 WELLS =      145049.7344
              DRAINS =    41219232.0000                DRAINS =      118614.4609
                  ET =    21924030.0000                    ET =       48218.4453
            RECHARGE =       81860.0000              RECHARGE =           0.0000

           TOTAL OUT =   269106080.0000             TOTAL OUT =      397182.2500

            IN - OUT =      239232.0000              IN - OUT =         863.6875

 PERCENT DISCREPANCY =           0.09     PERCENT DISCREPANCY =           0.22






         TIME SUMMARY AT END OF TIME STEP   10 IN STRESS PERIOD   12
                    SECONDS     MINUTES      HOURS       DAYS        YEARS
                    -----------------------------------------------------------
   TIME STEP LENGTH 2.62656E+05  4377.6      72.960      3.0400     8.32307E-03
 STRESS PERIOD TIME 2.62656E+06  43776.      729.60      30.400     8.32307E-02
         TOTAL TIME 3.15187E+07 5.25312E+05  8755.2      364.80     0.99877    
1
1
                            STRESS PERIOD NO.   13, LENGTH =   30.40000    
                            -----------------------------------------------

                              NUMBER OF TIME STEPS =    10

                               MULTIPLIER FOR DELT =     1.000

                            INITIAL TIME STEP SIZE =   3.040000    

 WELL NO.  LAYER   ROW   COL   STRESS RATE         
 --------------------------------------------------
      1      1     69    225      -1037.    
      2      1     71    224      -6048.    
      3      1     74    220      -6134.    
      4      1     73    220       0.000    
      5      1     71    223      -6221.    
      6      1     71    223      -7344.    
      7      1     72    223      -6394.    
      8      1     92    173      -6653.    
      9      1     94    174      -5875.    
     10      1     93    175       0.000    
     11      1    203    328      -5875.    
     12      1    438    460      -556.1    
     13      1    436    461      -556.1    
     14      1    410    454      -556.1    
     15      1    433    460      -556.1    
     16      1    431    462      -556.1    
     17      1    417    459      -556.1    
     18      1    418    458      -556.1    
     19      1    414    455      -556.1    
     20      1    443    464      -556.1    
     21      1    379    425      -556.1    
     22      1    362    405      -556.1    
     23      1    361    405      -556.1    
     24      1    362    406      -556.1    
     25      1    363    408      -556.1    
     26      1    364    410      -556.1    
     27      1    369    418      -556.1    
     28      1    367    417      -556.1    
     29      1    365    415      -556.1    
     30      1    402    447      -556.1    
     31      1    400    446      -556.1    
     32      1    392    444      -556.1    
     33      1    391    441      -556.1    
     34      1    403    448      -556.1    
     35      1    405    447      -556.1    
     36      1    362    410      -556.1    
     37      1    362    411      -556.1    
     38      1    363    412      -556.1    
     39      1    375    421      -556.1    
     40      1    383    430      -556.1    
     41      1    397    445      -556.1    
     42      1    360    403      -556.1    
     43      1    350    401      -556.1    
     44      1    346    393      -645.4    
     45      1    333    387      -645.4    
     46      1    328    384      -645.4    
     47      1    326    383      -645.4    
     48      1    323    378      -645.4    
     49      1    321    378      -645.4    
     50      1    322    376      -645.4    
     51      1    316    374      -645.4    
     52      1    311    371      -645.4    
     53      1    307    369      -645.4    
     54      1    305    368      -645.4    
     55      1    303    368      -645.4    
     56      1    300    369      -645.4    
     57      1    293    364      -645.4    
     58      1    292    362      -645.4    
     59      1    278    350      -645.4    
     60      1    274    351      -645.4    
     61      1    273    350      -645.4    
     62      1    271    350      -645.4    
     63      1    267    348      -645.4    
     64      1    263    348      -645.4    
     65      1    263    348      -645.4    
     66      1    248    347      -645.4    
     67      1    243    342      -645.4    
     68      1    242    339      -645.4    
     69      1    238    341      -645.4    
     70      1    233    340      -645.4    
     71      1    232    340      -645.4    
     72      1    229    341      -645.4    
     73      1    227    341      -645.4    
     74      1    219    342      -645.4    
     75      1    219    336      -645.4    
     76      1    199    329      -645.4    
     77      1    191    332      -813.7    
     78      1    190    332      -813.7    
     79      1    130    310      -813.7    
     80      1    123    305      -813.7    
     81      1    104    289      -813.7    
     82      1     96    287      -1045.    
     83      1     95    284      -1045.    
     84      1     95    280      -1045.    
     85      1     93    276      -1045.    
     86      1     94    275      -1045.    
     87      1     90    277      -1045.    
     88      1     90    273      -1045.    
     89      1     86    271      -1045.    
     90      1     85    270      -1045.    
     91      1     84    265      -1045.    
     92      1     85    265      -1045.    
     93      1     84    264      -1045.    
     94      1     79    263      -1045.    
     95      1     79    263      -1045.    
     96      1     76    262      -1045.    
     97      1     73    257      -1045.    
     98      1     74    255      -1045.    
     99      1     71    255      -1045.    
    100      1     66    253      -1045.    
    101      1     68    252      -1045.    
    102      1     69    250      -1045.    
    103      1     65    248      -1045.    
    104      1     68    248      -1045.    
    105      1     69    247      -1045.    
    106      1     73    247      -1045.    
    107      1     64    246      -1045.    
    108      1     69    245      -1045.    
    109      1     72    245      -1045.    
    110      1     69    241      -1045.    
    111      1     73    238      -1045.    
    112      1     70    238      -1045.    
    113      1     76    263      -1045.    
    114      1     66    232      -728.1    
    115      1     69    229      -728.1    
    116      1     71    228      -728.1    
    117      1     69    227      -728.1    
    118      1     72    219      -728.1    
    119      1     72    218      -728.1    
    120      1     72    218      -728.1    
    121      1     73    217      -728.1    
    122      1     77    219      -728.1    
    123      1     78    219      -728.1    
    124      1     83    213      -728.1    
    125      1     77    213      -728.1    
    126      1     81    211      -728.1    
    127      1     81    210      -728.1    
    128      1     81    210      -728.1    
    129      1     82    208      -728.1    
    130      1     80    205      -728.1    
    131      1     86    202      -728.1    
    132      1     84    200      -728.1    
    133      1     89    200      -728.1    
    134      1     89    199      -728.1    
    135      1     88    199      -728.1    
    136      1     86    199      -728.1    
    137      1     85    199      -728.1    
    138      1     82    197      -728.1    
    139      1     86    197      -728.1    
    140      1     88    198      -728.1    
    141      1     90    192      -728.1    
    142      1     89    191      -728.1    
    143      1     84    192      -728.1    
    144      1     91    189      -728.1    
    145      1     92    185      -728.1    
    146      1     87    183      -728.1    
    147      1     92    182      -728.1    
    148      1     90    182      -728.1    
    149      1     88    179      -728.1    
    150      1     89    176      -728.1    
    151      1     92    172      -728.1    
    152      1     93    164      -728.1    
    153      1     94    162      -728.1    
    154      1    103    156      -728.1    
    155      1    103    156      -728.1    
    156      1     96    154      -728.1    
    157      1     97    153      -728.1    
    158      1    122    139      -728.1    
    159      1     92     77      -728.1    
    160      1     94     77      -728.1    
    161      1     94     73      -728.1    
    162      1     97    152      -728.1    
    163      1    118    337      -666.7    
    164      1    133    319      -2678.    
    165      1    131    320      -3951.    
    166      1    133    321      -2956.    
    167      1    161    329      -2141.    
    168      1    178    330      -551.0    
    169      1    163    330      -1122.    
    170      1    131    320      -2473.    
    171      1    129    315      -3937.    
    172      1    162    329      -1959.    
    173      1    131    311      -826.1    
    174      1    221    340      -1994.    
    175      1    220    340      -1034.    
    176      1    221    340      -667.7    
    177      1    137    322      -2082.    
    178      1    137    321      -1407.    
    179      1    185    329      -2012.    
    180      1    183    329      -1473.    
    181      1    175    329      -585.3    
    182      1     79    243      -1490.    
    183      1     77    245      -2414.    
    184      1    199    329      -1617.    
    185      1    198    330      -2514.    
    186      1    140    328      -972.1    
    187      1    143    327      -863.6    
    188      1    139    327      -1331.    

    188 WELLS

 REUSING NON-PARAMETER DRAINS FROM LAST STRESS PERIOD

   1061 DRAINS

 REUSING SURF FROM LAST STRESS PERIOD

 REUSING EVTR FROM LAST STRESS PERIOD

 REUSING EXDP FROM LAST STRESS PERIOD



                           RECHARGE
 READING ON UNIT   19 WITH FORMAT: (510E15.6)          

 SOLVING FOR HEAD 
                                                   Max.-Head-Change                        Max.-Flux-Residual
  Residual-Control   Outer-Iter.   Inner-Iter.     Column Row Layer    Max.-Head-Change    Column Row Layer    Max.-Flux-Residual            L2-New               L2-Old           Solver-Max-Delh
          0                 1           3           263   79     1      -0.2701681281E+01     348  263    1      -0.1181123551E+04      0.7740597804E+04      0.3126607037E+02     -0.2701681281E+01
          0                 2           2           263   79     1       0.2280812629E+00     348  263    1       0.1171573706E+03      0.7730802890E+03      0.7740597804E+04      0.2280812629E+00
          0                 3           2           457  456     1       0.2359246635E-01     348  263    1       0.5850818155E+01      0.3864813433E+02      0.7730802890E+03      0.2359246635E-01

    ------------------------------------------------
       NWT REQUIRED            3 OUTER ITERATIONS 
       AND A TOTAL OF          7 INNER ITERATIONS.
    ------------------------------------------------

 NO OUTPUT CONTROL FOR STRESS PERIOD   13   TIME STEP    1

 WELLS WITH REDUCED PUMPING FOR STRESS PERIOD    13 TIME STEP     1
   LAY   ROW   COL         APPL.Q          ACT.Q        GW-HEAD       CELL-BOT
     1    92    77  -0.728135E+03  -0.531660E+03  -0.771211E+02  -0.930000E+02


 SOLVING FOR HEAD 
                                                   Max.-Head-Change                        Max.-Flux-Residual
  Residual-Control   Outer-Iter.   Inner-Iter.     Column Row Layer    Max.-Head-Change    Column Row Layer    Max.-Flux-Residual            L2-New               L2-Old           Solver-Max-Delh
          0                 1           3           263   79     1      -0.9747047571E+00      77   94    1      -0.5823844438E+03      0.5656139738E+04      0.3864813433E+02     -0.9747047571E+00
          0                 2           2           263   79     1       0.8385071575E-01      77   94    1       0.5823070590E+02      0.5659576877E+03      0.5656139738E+04      0.8385071575E-01

    ------------------------------------------------
       NWT REQUIRED            2 OUTER ITERATIONS 
       AND A TOTAL OF          5 INNER ITERATIONS.
    ------------------------------------------------

 NO OUTPUT CONTROL FOR STRESS PERIOD   13   TIME STEP    2

 WELLS WITH REDUCED PUMPING FOR STRESS PERIOD    13 TIME STEP     2
   LAY   ROW   COL         APPL.Q          ACT.Q        GW-HEAD       CELL-BOT
     1    92    77  -0.728135E+03  -0.522070E+03  -0.773549E+02  -0.930000E+02


 SOLVING FOR HEAD 
                                                   Max.-Head-Change                        Max.-Flux-Residual
  Residual-Control   Outer-Iter.   Inner-Iter.     Column Row Layer    Max.-Head-Change    Column Row Layer    Max.-Flux-Residual            L2-New               L2-Old           Solver-Max-Delh
          0                 1           3           263   79     1      -0.3560061084E+00      77   94    1      -0.5819823601E+03      0.5314599934E+04      0.2832875100E+02     -0.3560061084E+00
          0                 2           2           263   79     1       0.3073519199E-01      77   94    1       0.5819050769E+02      0.5316280641E+03      0.5314599934E+04      0.3073519199E-01

    ------------------------------------------------
       NWT REQUIRED            2 OUTER ITERATIONS 
       AND A TOTAL OF          5 INNER ITERATIONS.
    ------------------------------------------------

 NO OUTPUT CONTROL FOR STRESS PERIOD   13   TIME STEP    3

 WELLS WITH REDUCED PUMPING FOR STRESS PERIOD    13 TIME STEP     3
   LAY   ROW   COL         APPL.Q          ACT.Q        GW-HEAD       CELL-BOT
     1    92    77  -0.728135E+03  -0.514660E+03  -0.775336E+02  -0.930000E+02


 SOLVING FOR HEAD 
                                                   Max.-Head-Change                        Max.-Flux-Residual
  Residual-Control   Outer-Iter.   Inner-Iter.     Column Row Layer    Max.-Head-Change    Column Row Layer    Max.-Flux-Residual            L2-New               L2-Old           Solver-Max-Delh
          0                 1           3           341  217     1       0.2581477255E+00      77   94    1      -0.5815807268E+03      0.5154349486E+04      0.2658239588E+02      0.2581477255E+00
          0                 2           2           316  172     1       0.4553376810E-01      77   94    1       0.5815035456E+02      0.5154552399E+03      0.5154349486E+04      0.4553376810E-01

    ------------------------------------------------
       NWT REQUIRED            2 OUTER ITERATIONS 
       AND A TOTAL OF          5 INNER ITERATIONS.
    ------------------------------------------------

 NO OUTPUT CONTROL FOR STRESS PERIOD   13   TIME STEP    4

 WELLS WITH REDUCED PUMPING FOR STRESS PERIOD    13 TIME STEP     4
   LAY   ROW   COL         APPL.Q          ACT.Q        GW-HEAD       CELL-BOT
     1    92    77  -0.728135E+03  -0.508927E+03  -0.776706E+02  -0.930000E+02


 SOLVING FOR HEAD 
                                                   Max.-Head-Change                        Max.-Flux-Residual
  Residual-Control   Outer-Iter.   Inner-Iter.     Column Row Layer    Max.-Head-Change    Column Row Layer    Max.-Flux-Residual            L2-New               L2-Old           Solver-Max-Delh
          0                 1           3            77   94     1      -0.2411334974E+00      77   94    1      -0.5811796646E+03      0.5053650835E+04      0.2577393077E+02     -0.2411334974E+00
          0                 2           2           320  171     1       0.2880192299E-01      77   94    1       0.5811025852E+02      0.5053485817E+03      0.5053650835E+04      0.2880192299E-01

    ------------------------------------------------
       NWT REQUIRED            2 OUTER ITERATIONS 
       AND A TOTAL OF          5 INNER ITERATIONS.
    ------------------------------------------------

 NO OUTPUT CONTROL FOR STRESS PERIOD   13   TIME STEP    5

 WELLS WITH REDUCED PUMPING FOR STRESS PERIOD    13 TIME STEP     5
   LAY   ROW   COL         APPL.Q          ACT.Q        GW-HEAD       CELL-BOT
     1    92    77  -0.728135E+03  -0.504472E+03  -0.777765E+02  -0.930000E+02


 SOLVING FOR HEAD 
                                                   Max.-Head-Change                        Max.-Flux-Residual
  Residual-Control   Outer-Iter.   Inner-Iter.     Column Row Layer    Max.-Head-Change    Column Row Layer    Max.-Flux-Residual            L2-New               L2-Old           Solver-Max-Delh
          0                 1           3            77   94     1      -0.2409699866E+00      77   94    1      -0.5807790244E+03      0.4980225599E+04      0.2526854861E+02     -0.2409699866E+00
          0                 2           2           316  172     1       0.4528457916E-01      77   94    1       0.5807020469E+02      0.4980030694E+03      0.4980225599E+04      0.4528457916E-01

    ------------------------------------------------
       NWT REQUIRED            2 OUTER ITERATIONS 
       AND A TOTAL OF          5 INNER ITERATIONS.
    ------------------------------------------------

 NO OUTPUT CONTROL FOR STRESS PERIOD   13   TIME STEP    6

 WELLS WITH REDUCED PUMPING FOR STRESS PERIOD    13 TIME STEP     6
   LAY   ROW   COL         APPL.Q          ACT.Q        GW-HEAD       CELL-BOT
     1    92    77  -0.728135E+03  -0.500986E+03  -0.778590E+02  -0.930000E+02


 SOLVING FOR HEAD 
                                                   Max.-Head-Change                        Max.-Flux-Residual
  Residual-Control   Outer-Iter.   Inner-Iter.     Column Row Layer    Max.-Head-Change    Column Row Layer    Max.-Flux-Residual            L2-New               L2-Old           Solver-Max-Delh
          0                 1           3            77   94     1      -0.2408066674E+00      77   94    1      -0.5803788643E+03      0.4921864907E+04      0.4980030694E+03     -0.2408066674E+00
          0                 2           2           320  171     1       0.2780804763E-01      77   94    1       0.5803019889E+02      0.4921748127E+03      0.4921864907E+04      0.2780804763E-01

    ------------------------------------------------
       NWT REQUIRED            2 OUTER ITERATIONS 
       AND A TOTAL OF          5 INNER ITERATIONS.
    ------------------------------------------------

 NO OUTPUT CONTROL FOR STRESS PERIOD   13   TIME STEP    7

 WELLS WITH REDUCED PUMPING FOR STRESS PERIOD    13 TIME STEP     7
   LAY   ROW   COL         APPL.Q          ACT.Q        GW-HEAD       CELL-BOT
     1    92    77  -0.728135E+03  -0.498230E+03  -0.779240E+02  -0.930000E+02


 SOLVING FOR HEAD 
                                                   Max.-Head-Change                        Max.-Flux-Residual
  Residual-Control   Outer-Iter.   Inner-Iter.     Column Row Layer    Max.-Head-Change    Column Row Layer    Max.-Flux-Residual            L2-New               L2-Old           Solver-Max-Delh
          0                 1           3            77   94     1      -0.2406435089E+00      77   94    1      -0.5799791080E+03      0.4872881625E+04      0.4921748127E+03     -0.2406435089E+00
          0                 2           2           316  172     1       0.4498299406E-01      77   94    1       0.5799023348E+02      0.4872565323E+03      0.4872881625E+04      0.4498299406E-01

    ------------------------------------------------
       NWT REQUIRED            2 OUTER ITERATIONS 
       AND A TOTAL OF          5 INNER ITERATIONS.
    ------------------------------------------------

 NO OUTPUT CONTROL FOR STRESS PERIOD   13   TIME STEP    8

 WELLS WITH REDUCED PUMPING FOR STRESS PERIOD    13 TIME STEP     8
   LAY   ROW   COL         APPL.Q          ACT.Q        GW-HEAD       CELL-BOT
     1    92    77  -0.728135E+03  -0.496023E+03  -0.779760E+02  -0.930000E+02


 SOLVING FOR HEAD 
                                                   Max.-Head-Change                        Max.-Flux-Residual
  Residual-Control   Outer-Iter.   Inner-Iter.     Column Row Layer    Max.-Head-Change    Column Row Layer    Max.-Flux-Residual            L2-New               L2-Old           Solver-Max-Delh
          0                 1           3            77   94     1      -0.2404805646E+00      77   94    1      -0.5795798840E+03      0.4830290693E+04      0.4872565323E+03     -0.2404805646E+00
          0                 2           2           297  100     1       0.2732992687E-01      77   94    1       0.5795032130E+02      0.4830151037E+03      0.4830290693E+04      0.2732992687E-01

    ------------------------------------------------
       NWT REQUIRED            2 OUTER ITERATIONS 
       AND A TOTAL OF          5 INNER ITERATIONS.
    ------------------------------------------------

 NO OUTPUT CONTROL FOR STRESS PERIOD   13   TIME STEP    9

 WELLS WITH REDUCED PUMPING FOR STRESS PERIOD    13 TIME STEP     9
   LAY   ROW   COL         APPL.Q          ACT.Q        GW-HEAD       CELL-BOT
     1    92    77  -0.728135E+03  -0.494228E+03  -0.780181E+02  -0.930000E+02


 SOLVING FOR HEAD 
                                                   Max.-Head-Change                        Max.-Flux-Residual
  Residual-Control   Outer-Iter.   Inner-Iter.     Column Row Layer    Max.-Head-Change    Column Row Layer    Max.-Flux-Residual            L2-New               L2-Old           Solver-Max-Delh
          0                 1           3            77   94     1      -0.2403178040E+00      77   94    1      -0.5791811177E+03      0.4792354813E+04      0.4830151037E+03     -0.2403178040E+00
          0                 2           2           316  172     1       0.4463320971E-01      77   94    1       0.5791045485E+02      0.4792176426E+03      0.4792354813E+04      0.4463320971E-01

    ------------------------------------------------
       NWT REQUIRED            2 OUTER ITERATIONS 
       AND A TOTAL OF          5 INNER ITERATIONS.
    ------------------------------------------------

 OUTPUT CONTROL FOR STRESS PERIOD   13   TIME STEP   10
    SAVE HEAD FOR ALL LAYERS

 WELLS WITH REDUCED PUMPING FOR STRESS PERIOD    13 TIME STEP    10
   LAY   ROW   COL         APPL.Q          ACT.Q        GW-HEAD       CELL-BOT
     1    92    77  -0.728135E+03  -0.492743E+03  -0.780529E+02  -0.930000E+02


 HEAD WILL BE SAVED ON UNIT   51 AT END OF TIME STEP   10, STRESS PERIOD   13
1
  VOLUMETRIC BUDGET FOR ENTIRE MODEL AT END OF TIME STEP   10, STRESS PERIOD  13
  ------------------------------------------------------------------------------

     CUMULATIVE VOLUMES      L**3       RATES FOR THIS TIME STEP      L**3/T
     ------------------                 ------------------------

           IN:                                      IN:
           ---                                      ---
             STORAGE =   194593552.0000               STORAGE =      239855.7500
       CONSTANT HEAD =    18946358.0000         CONSTANT HEAD =       49945.8398
               WELLS =           0.0000                 WELLS =           0.0000
              DRAINS =           0.0000                DRAINS =           0.0000
                  ET =           0.0000                    ET =           0.0000
            RECHARGE =    68397016.0000              RECHARGE =      116475.8359

            TOTAL IN =   281936928.0000              TOTAL IN =      406277.4375

          OUT:                                     OUT:
          ----                                     ----
             STORAGE =    83327400.0000               STORAGE =       42429.2539
       CONSTANT HEAD =           0.0000         CONSTANT HEAD =           0.0000
               WELLS =   130050568.0000                 WELLS =      196372.3906
              DRAINS =    44829736.0000                DRAINS =      118797.7422
                  ET =    23381046.0000                    ET =       47695.6445
            RECHARGE =       81860.0000              RECHARGE =           0.0000

           TOTAL OUT =   281670624.0000             TOTAL OUT =      405295.0312

            IN - OUT =      266304.0000              IN - OUT =         982.4062

 PERCENT DISCREPANCY =           0.09     PERCENT DISCREPANCY =           0.24






         TIME SUMMARY AT END OF TIME STEP   10 IN STRESS PERIOD   13
                    SECONDS     MINUTES      HOURS       DAYS        YEARS
                    -----------------------------------------------------------
   TIME STEP LENGTH 2.62656E+05  4377.6      72.960      3.0400     8.32307E-03
 STRESS PERIOD TIME 2.62656E+06  43776.      729.60      30.400     8.32307E-02
         TOTAL TIME 3.41453E+07 5.69088E+05  9484.8      395.20      1.0820    
1
1
                            STRESS PERIOD NO.   14, LENGTH =   30.40000    
                            -----------------------------------------------

                              NUMBER OF TIME STEPS =    10

                               MULTIPLIER FOR DELT =     1.000

                            INITIAL TIME STEP SIZE =   3.040000    

 WELL NO.  LAYER   ROW   COL   STRESS RATE         
 --------------------------------------------------
      1      1     69    225      -1123.    
      2      1     71    224      -6048.    
      3      1     74    220      -6134.    
      4      1     73    220       0.000    
      5      1     71    223      -6221.    
      6      1     71    223      -7344.    
      7      1     72    223      -6394.    
      8      1     92    173      -6653.    
      9      1     94    174      -5875.    
     10      1     93    175       0.000    
     11      1    203    328      -5875.    
     12      1    438    460      -2971.    
     13      1    436    461      -2971.    
     14      1    410    454      -2971.    
     15      1    433    460      -2971.    
     16      1    431    462      -2971.    
     17      1    417    459      -2971.    
     18      1    418    458      -2971.    
     19      1    414    455      -2971.    
     20      1    443    464      -2971.    
     21      1    379    425      -2971.    
     22      1    362    405      -2971.    
     23      1    361    405      -2971.    
     24      1    362    406      -2971.    
     25      1    363    408      -2971.    
     26      1    364    410      -2971.    
     27      1    369    418      -2971.    
     28      1    367    417      -2971.    
     29      1    365    415      -2971.    
     30      1    402    447      -2971.    
     31      1    400    446      -2971.    
     32      1    392    444      -2971.    
     33      1    391    441      -2971.    
     34      1    403    448      -2971.    
     35      1    405    447      -2971.    
     36      1    362    410      -2971.    
     37      1    362    411      -2971.    
     38      1    363    412      -2971.    
     39      1    375    421      -2971.    
     40      1    383    430      -2971.    
     41      1    397    445      -2971.    
     42      1    360    403      -2971.    
     43      1    350    401      -2971.    
     44      1    346    393      -4061.    
     45      1    333    387      -4061.    
     46      1    328    384      -4061.    
     47      1    326    383      -4061.    
     48      1    323    378      -4061.    
     49      1    321    378      -4061.    
     50      1    322    376      -4061.    
     51      1    316    374      -4061.    
     52      1    311    371      -4061.    
     53      1    307    369      -4061.    
     54      1    305    368      -4061.    
     55      1    303    368      -4061.    
     56      1    300    369      -4061.    
     57      1    293    364      -4061.    
     58      1    292    362      -4061.    
     59      1    278    350      -4061.    
     60      1    274    351      -4061.    
     61      1    273    350      -4061.    
     62      1    271    350      -4061.    
     63      1    267    348      -4061.    
     64      1    263    348      -4061.    
     65      1    263    348      -4061.    
     66      1    248    347      -4061.    
     67      1    243    342      -4061.    
     68      1    242    339      -4061.    
     69      1    238    341      -4061.    
     70      1    233    340      -4061.    
     71      1    232    340      -4061.    
     72      1    229    341      -4061.    
     73      1    227    341      -4061.    
     74      1    219    342      -4061.    
     75      1    219    336      -4061.    
     76      1    199    329      -4061.    
     77      1    191    332      -5038.    
     78      1    190    332      -5038.    
     79      1    130    310      -5038.    
     80      1    123    305      -5038.    
     81      1    104    289      -5038.    
     82      1     96    287      -4290.    
     83      1     95    284      -4290.    
     84      1     95    280      -4290.    
     85      1     93    276      -4290.    
     86      1     94    275      -4290.    
     87      1     90    277      -4290.    
     88      1     90    273      -4290.    
     89      1     86    271      -4290.    
     90      1     85    270      -4290.    
     91      1     84    265      -4290.    
     92      1     85    265      -4290.    
     93      1     84    264      -4290.    
     94      1     79    263      -4290.    
     95      1     79    263      -4290.    
     96      1     76    262      -4290.    
     97      1     73    257      -4290.    
     98      1     74    255      -4290.    
     99      1     71    255      -4290.    
    100      1     66    253      -4290.    
    101      1     68    252      -4290.    
    102      1     69    250      -4290.    
    103      1     65    248      -4290.    
    104      1     68    248      -4290.    
    105      1     69    247      -4290.    
    106      1     73    247      -4290.    
    107      1     64    246      -4290.    
    108      1     69    245      -4290.    
    109      1     72    245      -4290.    
    110      1     69    241      -4290.    
    111      1     73    238      -4290.    
    112      1     70    238      -4290.    
    113      1     76    263      -4290.    
    114      1     66    232      -2310.    
    115      1     69    229      -2310.    
    116      1     71    228      -2310.    
    117      1     69    227      -2310.    
    118      1     72    219      -2310.    
    119      1     72    218      -2310.    
    120      1     72    218      -2310.    
    121      1     73    217      -2310.    
    122      1     77    219      -2310.    
    123      1     78    219      -2310.    
    124      1     83    213      -2310.    
    125      1     77    213      -2310.    
    126      1     81    211      -2310.    
    127      1     81    210      -2310.    
    128      1     81    210      -2310.    
    129      1     82    208      -2310.    
    130      1     80    205      -2310.    
    131      1     86    202      -2310.    
    132      1     84    200      -2310.    
    133      1     89    200      -2310.    
    134      1     89    199      -2310.    
    135      1     88    199      -2310.    
    136      1     86    199      -2310.    
    137      1     85    199      -2310.    
    138      1     82    197      -2310.    
    139      1     86    197      -2310.    
    140      1     88    198      -2310.    
    141      1     90    192      -2310.    
    142      1     89    191      -2310.    
    143      1     84    192      -2310.    
    144      1     91    189      -2310.    
    145      1     92    185      -2310.    
    146      1     87    183      -2310.    
    147      1     92    182      -2310.    
    148      1     90    182      -2310.    
    149      1     88    179      -2310.    
    150      1     89    176      -2310.    
    151      1     92    172      -2310.    
    152      1     93    164      -2310.    
    153      1     94    162      -2310.    
    154      1    103    156      -2310.    
    155      1    103    156      -2310.    
    156      1     96    154      -2310.    
    157      1     97    153      -2310.    
    158      1    122    139      -2310.    
    159      1     92     77      -2310.    
    160      1     94     77      -2310.    
    161      1     94     73      -2310.    
    162      1     97    152      -2310.    
    163      1    118    337      -666.7    
    164      1    133    319      -2678.    
    165      1    131    320      -3951.    
    166      1    133    321      -2956.    
    167      1    161    329      -2141.    
    168      1    178    330      -551.0    
    169      1    163    330      -1122.    
    170      1    131    320      -2473.    
    171      1    129    315      -3937.    
    172      1    162    329      -1959.    
    173      1    131    311      -826.1    
    174      1    221    340      -1994.    
    175      1    220    340      -1034.    
    176      1    221    340      -667.7    
    177      1    137    322      -2082.    
    178      1    137    321      -1407.    
    179      1    185    329      -2012.    
    180      1    183    329      -1473.    
    181      1    175    329      -585.3    
    182      1     79    243      -1490.    
    183      1     77    245      -2414.    
    184      1    199    329      -1617.    
    185      1    198    330      -2514.    
    186      1    140    328      -972.1    
    187      1    143    327      -863.6    
    188      1    139    327      -1331.    

    188 WELLS

 REUSING NON-PARAMETER DRAINS FROM LAST STRESS PERIOD

   1061 DRAINS

 REUSING SURF FROM LAST STRESS PERIOD

 REUSING EVTR FROM LAST STRESS PERIOD

 REUSING EXDP FROM LAST STRESS PERIOD



                           RECHARGE
 READING ON UNIT   19 WITH FORMAT: (510E15.6)          

 SOLVING FOR HEAD 
                                                   Max.-Head-Change                        Max.-Flux-Residual
  Residual-Control   Outer-Iter.   Inner-Iter.     Column Row Layer    Max.-Head-Change    Column Row Layer    Max.-Flux-Residual            L2-New               L2-Old           Solver-Max-Delh
          0                 1           3           263   79     1      -0.1743309513E+02     348  263    1      -0.6842522509E+04      0.3249809903E+05      0.4792176426E+03     -0.1743309513E+02
          0                 2           2           263   79     1       0.1349887786E+01     348  263    1       0.6314293307E+03      0.3159477310E+04      0.3249809903E+05      0.1349887786E+01
          0                 3           2           309  105     1       0.6796859336E-01     348  263    1       0.3136842160E+02      0.1585067113E+03      0.3159477310E+04      0.6796859336E-01

    ------------------------------------------------
       NWT REQUIRED            3 OUTER ITERATIONS 
       AND A TOTAL OF          7 INNER ITERATIONS.
    ------------------------------------------------

 NO OUTPUT CONTROL FOR STRESS PERIOD   14   TIME STEP    1

 WELLS WITH REDUCED PUMPING FOR STRESS PERIOD    14 TIME STEP     1
   LAY   ROW   COL         APPL.Q          ACT.Q        GW-HEAD       CELL-BOT
     1    92    77  -0.230952E+04  -0.102618E+04  -0.818446E+02  -0.930000E+02


 SOLVING FOR HEAD 
                                                   Max.-Head-Change                        Max.-Flux-Residual
  Residual-Control   Outer-Iter.   Inner-Iter.     Column Row Layer    Max.-Head-Change    Column Row Layer    Max.-Flux-Residual            L2-New               L2-Old           Solver-Max-Delh
          0                 1           3           263   79     1      -0.6908819974E+01     374  316    1      -0.2938450006E+04      0.1622586976E+05      0.1585067113E+03     -0.6908819974E+01
          0                 2           3           263   79     1       0.5604054114E+00     374  316    1       0.2935481305E+03      0.1615971918E+04      0.1622586976E+05      0.5604054114E+00
          0                 3           2           309  105     1       0.9995552107E-01     374  316    1       0.1467518669E+02      0.8073489572E+02      0.1615971918E+04      0.9995552107E-01

    ------------------------------------------------
       NWT REQUIRED            3 OUTER ITERATIONS 
       AND A TOTAL OF          8 INNER ITERATIONS.
    ------------------------------------------------

 NO OUTPUT CONTROL FOR STRESS PERIOD   14   TIME STEP    2

 WELLS WITH REDUCED PUMPING FOR STRESS PERIOD    14 TIME STEP     2
   LAY   ROW   COL         APPL.Q          ACT.Q        GW-HEAD       CELL-BOT
     1    92    77  -0.230952E+04  -0.770091E+03  -0.836710E+02  -0.930000E+02


 SOLVING FOR HEAD 
                                                   Max.-Head-Change                        Max.-Flux-Residual
  Residual-Control   Outer-Iter.   Inner-Iter.     Column Row Layer    Max.-Head-Change    Column Row Layer    Max.-Flux-Residual            L2-New               L2-Old           Solver-Max-Delh
          0                 1           3           263   79     1      -0.3082184681E+01     374  316    1      -0.2615109498E+04      0.1340190841E+05      0.8073489572E+02     -0.3082184681E+01
          0                 2           2           263   79     1       0.2571975619E+00     374  316    1       0.2612301401E+03      0.1339679858E+04      0.1340190841E+05      0.2571975619E+00
          0                 3           2           309  105     1       0.1227794241E+00     374  316    1       0.1305941519E+02      0.6697067523E+02      0.1339679858E+04      0.1227794241E+00
          0                 4           2           309  105     1       0.1138016985E+00     374  316    1       0.6528349724E+00      0.3347827276E+01      0.6697067523E+02      0.1138016985E+00
          0                 5           2           309  105     1       0.1054848912E+00     374  316    1       0.3262868064E-01      0.1675106983E+00      0.3347827276E+01      0.1054848912E+00
          0                 6           2           309  105     1       0.9778870190E-01     457  456    1       0.6893804344E-02      0.1148136000E-01      0.1675106983E+00      0.9778870190E-01

    ------------------------------------------------
       NWT REQUIRED            6 OUTER ITERATIONS 
       AND A TOTAL OF         13 INNER ITERATIONS.
    ------------------------------------------------

 NO OUTPUT CONTROL FOR STRESS PERIOD   14   TIME STEP    3

 WELLS WITH REDUCED PUMPING FOR STRESS PERIOD    14 TIME STEP     3
   LAY   ROW   COL         APPL.Q          ACT.Q        GW-HEAD       CELL-BOT
     1    92    77  -0.230952E+04  -0.649704E+03  -0.845715E+02  -0.930000E+02


 SOLVING FOR HEAD 
                                                   Max.-Head-Change                        Max.-Flux-Residual
  Residual-Control   Outer-Iter.   Inner-Iter.     Column Row Layer    Max.-Head-Change    Column Row Layer    Max.-Flux-Residual            L2-New               L2-Old           Solver-Max-Delh
          0                 1           3           263   79     1      -0.1595792350E+01     378  321    1      -0.2346033843E+04      0.1215090619E+05      0.1148136000E-01     -0.1595792350E+01
          0                 2           2           263   79     1       0.1352389758E+00     378  321    1       0.2343379863E+03      0.1214907000E+04      0.1215090619E+05      0.1352389758E+00
          0                 3           2           309  105     1       0.1018789053E+00     378  321    1       0.1171491536E+02      0.6073413548E+02      0.1214907000E+04      0.1018789053E+00
          0                 4           2           309  105     1       0.9160085525E-01     378  321    1       0.5856233774E+00      0.3036089525E+01      0.6073413548E+02      0.9160085525E-01

    ------------------------------------------------
       NWT REQUIRED            4 OUTER ITERATIONS 
       AND A TOTAL OF          9 INNER ITERATIONS.
    ------------------------------------------------

 NO OUTPUT CONTROL FOR STRESS PERIOD   14   TIME STEP    4

 WELLS WITH REDUCED PUMPING FOR STRESS PERIOD    14 TIME STEP     4
   LAY   ROW   COL         APPL.Q          ACT.Q        GW-HEAD       CELL-BOT
     1    92    77  -0.230952E+04  -0.591335E+03  -0.850238E+02  -0.930000E+02


 SOLVING FOR HEAD 
                                                   Max.-Head-Change                        Max.-Flux-Residual
  Residual-Control   Outer-Iter.   Inner-Iter.     Column Row Layer    Max.-Head-Change    Column Row Layer    Max.-Flux-Residual            L2-New               L2-Old           Solver-Max-Delh
          0                 1           3           264   78     1      -0.1038769967E+01     378  321    1      -0.2135210988E+04      0.1142614758E+05      0.3036089525E+01     -0.1038769967E+01
          0                 2           2           309  105     1       0.9335471799E-01     378  321    1       0.2132680973E+03      0.1141727661E+04      0.1142614758E+05      0.9335471799E-01

    ------------------------------------------------
       NWT REQUIRED            2 OUTER ITERATIONS 
       AND A TOTAL OF          5 INNER ITERATIONS.
    ------------------------------------------------

 NO OUTPUT CONTROL FOR STRESS PERIOD   14   TIME STEP    5

 WELLS WITH REDUCED PUMPING FOR STRESS PERIOD    14 TIME STEP     5
   LAY   ROW   COL         APPL.Q          ACT.Q        GW-HEAD       CELL-BOT
     1    92    77  -0.230952E+04  -0.562122E+03  -0.852550E+02  -0.930000E+02


 SOLVING FOR HEAD 
                                                   Max.-Head-Change                        Max.-Flux-Residual
  Residual-Control   Outer-Iter.   Inner-Iter.     Column Row Layer    Max.-Head-Change    Column Row Layer    Max.-Flux-Residual            L2-New               L2-Old           Solver-Max-Delh
          0                 1           3            77   94     1      -0.8838927239E+00      77   94    1      -0.2129994354E+04      0.1094190139E+05      0.5708191070E+02     -0.8838927239E+00
          0                 2           2           309  105     1       0.8459596278E-01      77   94    1       0.2128964425E+03      0.1098506406E+04      0.1094190139E+05      0.8459596278E-01

    ------------------------------------------------
       NWT REQUIRED            2 OUTER ITERATIONS 
       AND A TOTAL OF          5 INNER ITERATIONS.
    ------------------------------------------------

 NO OUTPUT CONTROL FOR STRESS PERIOD   14   TIME STEP    6

 WELLS WITH REDUCED PUMPING FOR STRESS PERIOD    14 TIME STEP     6
   LAY   ROW   COL         APPL.Q          ACT.Q        GW-HEAD       CELL-BOT
     1    92    77  -0.230952E+04  -0.547333E+03  -0.853735E+02  -0.930000E+02


 SOLVING FOR HEAD 
                                                   Max.-Head-Change                        Max.-Flux-Residual
  Residual-Control   Outer-Iter.   Inner-Iter.     Column Row Layer    Max.-Head-Change    Column Row Layer    Max.-Flux-Residual            L2-New               L2-Old           Solver-Max-Delh
          0                 1           3            77   94     1      -0.8832343773E+00      77   94    1      -0.2128321801E+04      0.1059208375E+05      0.5492708536E+02     -0.8832343773E+00
          0                 2           2            77   94     1       0.7624917028E-01      77   94    1       0.2127293388E+03      0.1058988440E+04      0.1059208375E+05      0.7624917028E-01

    ------------------------------------------------
       NWT REQUIRED            2 OUTER ITERATIONS 
       AND A TOTAL OF          5 INNER ITERATIONS.
    ------------------------------------------------

 NO OUTPUT CONTROL FOR STRESS PERIOD   14   TIME STEP    7

 WELLS WITH REDUCED PUMPING FOR STRESS PERIOD    14 TIME STEP     7
   LAY   ROW   COL         APPL.Q          ACT.Q        GW-HEAD       CELL-BOT
     1    92    77  -0.230952E+04  -0.539702E+03  -0.854350E+02  -0.930000E+02


 SOLVING FOR HEAD 
                                                   Max.-Head-Change                        Max.-Flux-Residual
  Residual-Control   Outer-Iter.   Inner-Iter.     Column Row Layer    Max.-Head-Change    Column Row Layer    Max.-Flux-Residual            L2-New               L2-Old           Solver-Max-Delh
          0                 1           3            77   94     1      -0.8825767860E+00      77   94    1      -0.2126651266E+04      0.1032666639E+05      0.5294749755E+02     -0.8825767860E+00
          0                 2           2            77   94     1       0.7619242178E-01      77   94    1       0.2125624369E+03      0.1032406216E+04      0.1032666639E+05      0.7619242178E-01

    ------------------------------------------------
       NWT REQUIRED            2 OUTER ITERATIONS 
       AND A TOTAL OF          5 INNER ITERATIONS.
    ------------------------------------------------

 NO OUTPUT CONTROL FOR STRESS PERIOD   14   TIME STEP    8

 WELLS WITH REDUCED PUMPING FOR STRESS PERIOD    14 TIME STEP     8
   LAY   ROW   COL         APPL.Q          ACT.Q        GW-HEAD       CELL-BOT
     1    92    77  -0.230952E+04  -0.535667E+03  -0.854676E+02  -0.930000E+02


 SOLVING FOR HEAD 
                                                   Max.-Head-Change                        Max.-Flux-Residual
  Residual-Control   Outer-Iter.   Inner-Iter.     Column Row Layer    Max.-Head-Change    Column Row Layer    Max.-Flux-Residual            L2-New               L2-Old           Solver-Max-Delh
          0                 1           3            77   94     1      -0.8819199439E+00      77   94    1      -0.2124982728E+04      0.1011692008E+05      0.5162219893E+02     -0.8819199439E+00
          0                 2           2            77   94     1       0.7613573785E-01      77   94    1       0.2123957344E+03      0.1011514625E+04      0.1011692008E+05      0.7613573785E-01

    ------------------------------------------------
       NWT REQUIRED            2 OUTER ITERATIONS 
       AND A TOTAL OF          5 INNER ITERATIONS.
    ------------------------------------------------

 NO OUTPUT CONTROL FOR STRESS PERIOD   14   TIME STEP    9

 WELLS WITH REDUCED PUMPING FOR STRESS PERIOD    14 TIME STEP     9
   LAY   ROW   COL         APPL.Q          ACT.Q        GW-HEAD       CELL-BOT
     1    92    77  -0.230952E+04  -0.533451E+03  -0.854856E+02  -0.930000E+02


 SOLVING FOR HEAD 
                                                   Max.-Head-Change                        Max.-Flux-Residual
  Residual-Control   Outer-Iter.   Inner-Iter.     Column Row Layer    Max.-Head-Change    Column Row Layer    Max.-Flux-Residual            L2-New               L2-Old           Solver-Max-Delh
          0                 1           3            77   94     1      -0.8812638456E+00      77   94    1      -0.2123316172E+04      0.9946427725E+04      0.5071024236E+02     -0.8812638456E+00
          0                 2           2            77   94     1       0.7607911800E-01      77   94    1       0.2122292299E+03      0.9974695560E+03      0.9946427725E+04      0.7607911800E-01

    ------------------------------------------------
       NWT REQUIRED            2 OUTER ITERATIONS 
       AND A TOTAL OF          5 INNER ITERATIONS.
    ------------------------------------------------

 OUTPUT CONTROL FOR STRESS PERIOD   14   TIME STEP   10
    SAVE HEAD FOR ALL LAYERS

 WELLS WITH REDUCED PUMPING FOR STRESS PERIOD    14 TIME STEP    10
   LAY   ROW   COL         APPL.Q          ACT.Q        GW-HEAD       CELL-BOT
     1    92    77  -0.230952E+04  -0.532158E+03  -0.854960E+02  -0.930000E+02


 HEAD WILL BE SAVED ON UNIT   51 AT END OF TIME STEP   10, STRESS PERIOD   14
1
  VOLUMETRIC BUDGET FOR ENTIRE MODEL AT END OF TIME STEP   10, STRESS PERIOD  14
  ------------------------------------------------------------------------------

     CUMULATIVE VOLUMES      L**3       RATES FOR THIS TIME STEP      L**3/T
     ------------------                 ------------------------

           IN:                                      IN:
           ---                                      ---
             STORAGE =   210578544.0000               STORAGE =      515749.0938
       CONSTANT HEAD =    20467644.0000         CONSTANT HEAD =       50119.3906
               WELLS =           0.0000                 WELLS =           0.0000
              DRAINS =           0.0000                DRAINS =           0.0000
                  ET =           0.0000                    ET =           0.0000
            RECHARGE =    72672136.0000              RECHARGE =      140627.9844

            TOTAL IN =   303718336.0000              TOTAL IN =      706496.5000

          OUT:                                     OUT:
          ----                                     ----
             STORAGE =    84301720.0000               STORAGE =       28549.5684
       CONSTANT HEAD =           0.0000         CONSTANT HEAD =           0.0000
               WELLS =   146069248.0000                 WELLS =      526833.8125
              DRAINS =    48220124.0000                DRAINS =      106375.0391
                  ET =    24733520.0000                    ET =       42304.7109
            RECHARGE =       81860.0000              RECHARGE =           0.0000

           TOTAL OUT =   303406464.0000             TOTAL OUT =      704063.1250

            IN - OUT =      311872.0000              IN - OUT =        2433.3750

 PERCENT DISCREPANCY =           0.10     PERCENT DISCREPANCY =           0.35






         TIME SUMMARY AT END OF TIME STEP   10 IN STRESS PERIOD   14
                    SECONDS     MINUTES      HOURS       DAYS        YEARS
                    -----------------------------------------------------------
   TIME STEP LENGTH 2.62656E+05  4377.6      72.960      3.0400     8.32307E-03
 STRESS PERIOD TIME 2.62656E+06  43776.      729.60      30.400     8.32307E-02
         TOTAL TIME 3.67719E+07 6.12864E+05  10214.      425.60      1.1652    
1
1
                            STRESS PERIOD NO.   15, LENGTH =   30.40000    
                            -----------------------------------------------

                              NUMBER OF TIME STEPS =    10

                               MULTIPLIER FOR DELT =     1.000

                            INITIAL TIME STEP SIZE =   3.040000    

 WELL NO.  LAYER   ROW   COL   STRESS RATE         
 --------------------------------------------------
      1      1     69    225      -1210.    
      2      1     71    224      -6048.    
      3      1     74    220      -6134.    
      4      1     73    220       0.000    
      5      1     71    223      -6221.    
      6      1     71    223      -7344.    
      7      1     72    223      -6394.    
      8      1     92    173      -6653.    
      9      1     94    174      -5875.    
     10      1     93    175       0.000    
     11      1    203    328      -5875.    
     12      1    438    460      -2524.    
     13      1    436    461      -2524.    
     14      1    410    454      -2524.    
     15      1    433    460      -2524.    
     16      1    431    462      -2524.    
     17      1    417    459      -2524.    
     18      1    418    458      -2524.    
     19      1    414    455      -2524.    
     20      1    443    464      -2524.    
     21      1    379    425      -2524.    
     22      1    362    405      -2524.    
     23      1    361    405      -2524.    
     24      1    362    406      -2524.    
     25      1    363    408      -2524.    
     26      1    364    410      -2524.    
     27      1    369    418      -2524.    
     28      1    367    417      -2524.    
     29      1    365    415      -2524.    
     30      1    402    447      -2524.    
     31      1    400    446      -2524.    
     32      1    392    444      -2524.    
     33      1    391    441      -2524.    
     34      1    403    448      -2524.    
     35      1    405    447      -2524.    
     36      1    362    410      -2524.    
     37      1    362    411      -2524.    
     38      1    363    412      -2524.    
     39      1    375    421      -2524.    
     40      1    383    430      -2524.    
     41      1    397    445      -2524.    
     42      1    360    403      -2524.    
     43      1    350    401      -2524.    
     44      1    346    393      -3488.    
     45      1    333    387      -3488.    
     46      1    328    384      -3488.    
     47      1    326    383      -3488.    
     48      1    323    378      -3488.    
     49      1    321    378      -3488.    
     50      1    322    376      -3488.    
     51      1    316    374      -3488.    
     52      1    311    371      -3488.    
     53      1    307    369      -3488.    
     54      1    305    368      -3488.    
     55      1    303    368      -3488.    
     56      1    300    369      -3488.    
     57      1    293    364      -3488.    
     58      1    292    362      -3488.    
     59      1    278    350      -3488.    
     60      1    274    351      -3488.    
     61      1    273    350      -3488.    
     62      1    271    350      -3488.    
     63      1    267    348      -3488.    
     64      1    263    348      -3488.    
     65      1    263    348      -3488.    
     66      1    248    347      -3488.    
     67      1    243    342      -3488.    
     68      1    242    339      -3488.    
     69      1    238    341      -3488.    
     70      1    233    340      -3488.    
     71      1    232    340      -3488.    
     72      1    229    341      -3488.    
     73      1    227    341      -3488.    
     74      1    219    342      -3488.    
     75      1    219    336      -3488.    
     76      1    199    329      -3488.    
     77      1    191    332      -4532.    
     78      1    190    332      -4532.    
     79      1    130    310      -4532.    
     80      1    123    305      -4532.    
     81      1    104    289      -4532.    
     82      1     96    287      -3788.    
     83      1     95    284      -3788.    
     84      1     95    280      -3788.    
     85      1     93    276      -3788.    
     86      1     94    275      -3788.    
     87      1     90    277      -3788.    
     88      1     90    273      -3788.    
     89      1     86    271      -3788.    
     90      1     85    270      -3788.    
     91      1     84    265      -3788.    
     92      1     85    265      -3788.    
     93      1     84    264      -3788.    
     94      1     79    263      -3788.    
     95      1     79    263      -3788.    
     96      1     76    262      -3788.    
     97      1     73    257      -3788.    
     98      1     74    255      -3788.    
     99      1     71    255      -3788.    
    100      1     66    253      -3788.    
    101      1     68    252      -3788.    
    102      1     69    250      -3788.    
    103      1     65    248      -3788.    
    104      1     68    248      -3788.    
    105      1     69    247      -3788.    
    106      1     73    247      -3788.    
    107      1     64    246      -3788.    
    108      1     69    245      -3788.    
    109      1     72    245      -3788.    
    110      1     69    241      -3788.    
    111      1     73    238      -3788.    
    112      1     70    238      -3788.    
    113      1     76    263      -3788.    
    114      1     66    232      -2343.    
    115      1     69    229      -2343.    
    116      1     71    228      -2343.    
    117      1     69    227      -2343.    
    118      1     72    219      -2343.    
    119      1     72    218      -2343.    
    120      1     72    218      -2343.    
    121      1     73    217      -2343.    
    122      1     77    219      -2343.    
    123      1     78    219      -2343.    
    124      1     83    213      -2343.    
    125      1     77    213      -2343.    
    126      1     81    211      -2343.    
    127      1     81    210      -2343.    
    128      1     81    210      -2343.    
    129      1     82    208      -2343.    
    130      1     80    205      -2343.    
    131      1     86    202      -2343.    
    132      1     84    200      -2343.    
    133      1     89    200      -2343.    
    134      1     89    199      -2343.    
    135      1     88    199      -2343.    
    136      1     86    199      -2343.    
    137      1     85    199      -2343.    
    138      1     82    197      -2343.    
    139      1     86    197      -2343.    
    140      1     88    198      -2343.    
    141      1     90    192      -2343.    
    142      1     89    191      -2343.    
    143      1     84    192      -2343.    
    144      1     91    189      -2343.    
    145      1     92    185      -2343.    
    146      1     87    183      -2343.    
    147      1     92    182      -2343.    
    148      1     90    182      -2343.    
    149      1     88    179      -2343.    
    150      1     89    176      -2343.    
    151      1     92    172      -2343.    
    152      1     93    164      -2343.    
    153      1     94    162      -2343.    
    154      1    103    156      -2343.    
    155      1    103    156      -2343.    
    156      1     96    154      -2343.    
    157      1     97    153      -2343.    
    158      1    122    139      -2343.    
    159      1     92     77      -2343.    
    160      1     94     77      -2343.    
    161      1     94     73      -2343.    
    162      1     97    152      -2343.    
    163      1    118    337      -666.7    
    164      1    133    319      -2678.    
    165      1    131    320      -3951.    
    166      1    133    321      -2956.    
    167      1    161    329      -2141.    
    168      1    178    330      -551.0    
    169      1    163    330      -1122.    
    170      1    131    320      -2473.    
    171      1    129    315      -3937.    
    172      1    162    329      -1959.    
    173      1    131    311      -826.1    
    174      1    221    340      -1994.    
    175      1    220    340      -1034.    
    176      1    221    340      -667.7    
    177      1    137    322      -2082.    
    178      1    137    321      -1407.    
    179      1    185    329      -2012.    
    180      1    183    329      -1473.    
    181      1    175    329      -585.3    
    182      1     79    243      -1490.    
    183      1     77    245      -2414.    
    184      1    199    329      -1617.    
    185      1    198    330      -2514.    
    186      1    140    328      -972.1    
    187      1    143    327      -863.6    
    188      1    139    327      -1331.    

    188 WELLS

 REUSING NON-PARAMETER DRAINS FROM LAST STRESS PERIOD

   1061 DRAINS

 REUSING SURF FROM LAST STRESS PERIOD

 REUSING EVTR FROM LAST STRESS PERIOD

 REUSING EXDP FROM LAST STRESS PERIOD



                           RECHARGE
 READING ON UNIT   19 WITH FORMAT: (510E15.6)          

 SOLVING FOR HEAD 
                                                   Max.-Head-Change                        Max.-Flux-Residual
  Residual-Control   Outer-Iter.   Inner-Iter.     Column Row Layer    Max.-Head-Change    Column Row Layer    Max.-Flux-Residual            L2-New               L2-Old           Solver-Max-Delh
          0                 1           3           263   79     1       0.2534675584E+01      77   94    1      -0.2155051081E+04      0.9940070859E+04      0.4987239709E+02      0.2534675584E+01
          0                 2           2           232   94     1       0.3362442343E+00      77   94    1       0.2153996349E+03      0.9925091030E+03      0.9940070859E+04      0.3362442343E+00
          0                 3           2           232   94     1       0.3184150290E+00      77   94    1       0.1076919583E+02      0.4962145780E+02      0.9925091030E+03      0.3184150290E+00
          0                 4           2           232   94     1       0.3013359824E+00      77   94    1       0.5383501420E+00      0.2480585348E+01      0.4962145780E+02      0.3013359824E+00
          0                 5           2           232   94     1       0.2852094449E+00      77   94    1       0.2690673554E-01      0.1243482237E+00      0.2480585348E+01      0.2852094449E+00
          0                 6           2           232   94     1       0.2699858107E+00     457  456    1       0.7839851444E-02      0.1132373829E-01      0.1243482237E+00      0.2699858107E+00
          0                 7           2           232   94     1       0.2556113411E+00     457  456    1       0.7833180784E-02      0.9400919468E-02      0.1132373829E-01      0.2556113411E+00
          0                 8           2           232   94     1       0.2420348075E+00     457  456    1       0.7826516389E-02      0.9325615457E-02      0.9400919468E-02      0.2420348075E+00
          0                 9           2           232   94     1       0.2292083340E+00     457  456    1       0.7819857811E-02      0.9263977224E-02      0.9325615457E-02      0.2292083340E+00
          0                10           2           232   94     1       0.2170872927E+00     457  456    1       0.7813204952E-02      0.9208727302E-02      0.9263977224E-02      0.2170872927E+00
                                                   Max.-Head-Change                        Max.-Flux-Residual
  Residual-Control   Outer-Iter.   Inner-Iter.     Column Row Layer    Max.-Head-Change    Column Row Layer    Max.-Flux-Residual            L2-New               L2-Old           Solver-Max-Delh
          0                11           2           232   94     1       0.2056300649E+00     457  456    1       0.7806557780E-02      0.9158587971E-02      0.9208727302E-02      0.2056300649E+00
          0                12           2           232   94     1       0.1947978021E+00     457  456    1       0.7799916278E-02      0.9112774656E-02      0.9158587971E-02      0.1947978021E+00
          0                13           2           232   94     1       0.1845542073E+00     457  456    1       0.7793280435E-02      0.9070744113E-02      0.9112774656E-02      0.1845542073E+00
          0                14           2           232   94     1       0.1748653359E+00     457  456    1       0.7786650242E-02      0.9032080257E-02      0.9070744113E-02      0.1748653359E+00
          0                15           2           232   94     1       0.1656994159E+00     457  456    1       0.7780025690E-02      0.8996440075E-02      0.9032080257E-02      0.1656994159E+00
          0                16           2           232   94     1       0.1570266854E+00     457  456    1       0.7773406773E-02      0.8963527649E-02      0.8996440075E-02      0.1570266854E+00
          0                17           2           232   94     1       0.1488192441E+00     457  456    1       0.7766793485E-02      0.8933081086E-02      0.8963527649E-02      0.1488192441E+00
          0                18           2           232   94     1       0.1410509181E+00     457  456    1       0.7760185820E-02      0.8904865526E-02      0.8933081086E-02      0.1410509181E+00
          0                19           2           232   94     1       0.1336971373E+00     457  456    1       0.7753583772E-02      0.8878668991E-02      0.8904865526E-02      0.1336971373E+00
          0                20           2           232   94     1       0.1267348226E+00     457  456    1       0.7746987334E-02      0.8854299567E-02      0.8878668991E-02      0.1267348226E+00
                                                   Max.-Head-Change                        Max.-Flux-Residual
  Residual-Control   Outer-Iter.   Inner-Iter.     Column Row Layer    Max.-Head-Change    Column Row Layer    Max.-Flux-Residual            L2-New               L2-Old           Solver-Max-Delh
          0                21           2           232   94     1       0.1201422825E+00     457  456    1       0.7740396506E-02      0.8831583314E-02      0.8854299567E-02      0.1201422825E+00
          0                22           2           232   94     1       0.1138991190E+00     457  456    1       0.7733811279E-02      0.8810362533E-02      0.8831583314E-02      0.1138991190E+00
          0                23           2           232   94     1       0.1079861401E+00     457  456    1       0.7727231649E-02      0.8790494269E-02      0.8810362533E-02      0.1079861401E+00
          0                24           2           232   94     1       0.1023852802E+00     457  456    1       0.7720657611E-02      0.8771848972E-02      0.8790494269E-02      0.1023852802E+00
          0                25           2           232   94     1       0.9707952603E-01     457  456    1       0.7714089161E-02      0.8754309288E-02      0.8771848972E-02      0.9707952603E-01

    ------------------------------------------------
       NWT REQUIRED           25 OUTER ITERATIONS 
       AND A TOTAL OF         51 INNER ITERATIONS.
    ------------------------------------------------

 NO OUTPUT CONTROL FOR STRESS PERIOD   15   TIME STEP    1

 WELLS WITH REDUCED PUMPING FOR STRESS PERIOD    15 TIME STEP     1
   LAY   ROW   COL         APPL.Q          ACT.Q        GW-HEAD       CELL-BOT
     1    92    77  -0.234339E+04  -0.535628E+03  -0.855307E+02  -0.930000E+02


 SOLVING FOR HEAD 
                                                   Max.-Head-Change                        Max.-Flux-Residual
  Residual-Control   Outer-Iter.   Inner-Iter.     Column Row Layer    Max.-Head-Change    Column Row Layer    Max.-Flux-Residual            L2-New               L2-Old           Solver-Max-Delh
          0                 1           3            77   94     1      -0.8938090441E+00      77   94    1      -0.2153369374E+04      0.8937346789E+04      0.8754309288E-02     -0.8938090441E+00
          0                 2           2           232   94     1       0.1171424059E+00      77   94    1       0.2152316165E+03      0.8961489736E+03      0.8937346789E+04      0.1171424059E+00
          0                 3           2           232   94     1       0.1090217604E+00      77   94    1       0.1076080149E+02      0.4480621081E+02      0.8961489736E+03      0.1090217604E+00
          0                 4           2           232   94     1       0.1012977607E+00      77   94    1       0.5379307830E+00      0.2239878182E+01      0.4480621081E+02      0.1012977607E+00
          0                 5           2           232   94     1       0.9411935946E-01      77   94    1       0.2688578948E-01      0.1123005993E+00      0.2239878182E+01      0.9411935946E-01

    ------------------------------------------------
       NWT REQUIRED            5 OUTER ITERATIONS 
       AND A TOTAL OF         11 INNER ITERATIONS.
    ------------------------------------------------

 NO OUTPUT CONTROL FOR STRESS PERIOD   15   TIME STEP    2

 WELLS WITH REDUCED PUMPING FOR STRESS PERIOD    15 TIME STEP     2
   LAY   ROW   COL         APPL.Q          ACT.Q        GW-HEAD       CELL-BOT
     1    92    77  -0.234339E+04  -0.533268E+03  -0.855497E+02  -0.930000E+02


 SOLVING FOR HEAD 
                                                   Max.-Head-Change                        Max.-Flux-Residual
  Residual-Control   Outer-Iter.   Inner-Iter.     Column Row Layer    Max.-Head-Change    Column Row Layer    Max.-Flux-Residual            L2-New               L2-Old           Solver-Max-Delh
          0                 1           3            77   94     1      -0.8931481939E+00      77   94    1      -0.2151689675E+04      0.8796987365E+04      0.1123005993E+00     -0.8931481939E+00
          0                 2           2           232   94     1       0.1084376693E+00      77   94    1       0.2150637999E+03      0.8793426923E+03      0.8796987365E+04      0.1084376693E+00
          0                 3           2           232   94     1       0.9811818223E-01      77   94    1       0.1075241486E+02      0.4396619541E+02      0.8793426923E+03      0.9811818223E-01

    ------------------------------------------------
       NWT REQUIRED            3 OUTER ITERATIONS 
       AND A TOTAL OF          7 INNER ITERATIONS.
    ------------------------------------------------

 NO OUTPUT CONTROL FOR STRESS PERIOD   15   TIME STEP    3

 WELLS WITH REDUCED PUMPING FOR STRESS PERIOD    15 TIME STEP     3
   LAY   ROW   COL         APPL.Q          ACT.Q        GW-HEAD       CELL-BOT
     1    92    77  -0.234339E+04  -0.531911E+03  -0.855606E+02  -0.930000E+02


 SOLVING FOR HEAD 
                                                   Max.-Head-Change                        Max.-Flux-Residual
  Residual-Control   Outer-Iter.   Inner-Iter.     Column Row Layer    Max.-Head-Change    Column Row Layer    Max.-Flux-Residual            L2-New               L2-Old           Solver-Max-Delh
          0                 1           3            77   94     1      -0.8924879181E+00      77   94    1      -0.2150011529E+04      0.8718089446E+04      0.4396619541E+02     -0.8924879181E+00
          0                 2           2           232   94     1       0.1025618389E+00      77   94    1       0.2148961389E+03      0.8775765183E+03      0.8718089446E+04      0.1025618389E+00
          0                 3           2           232   94     1       0.8948468692E-01      77   94    1       0.1074403461E+02      0.4387761886E+02      0.8775765183E+03      0.8948468692E-01

    ------------------------------------------------
       NWT REQUIRED            3 OUTER ITERATIONS 
       AND A TOTAL OF          7 INNER ITERATIONS.
    ------------------------------------------------

 NO OUTPUT CONTROL FOR STRESS PERIOD   15   TIME STEP    4

 WELLS WITH REDUCED PUMPING FOR STRESS PERIOD    15 TIME STEP     4
   LAY   ROW   COL         APPL.Q          ACT.Q        GW-HEAD       CELL-BOT
     1    92    77  -0.234339E+04  -0.531064E+03  -0.855674E+02  -0.930000E+02


 SOLVING FOR HEAD 
                                                   Max.-Head-Change                        Max.-Flux-Residual
  Residual-Control   Outer-Iter.   Inner-Iter.     Column Row Layer    Max.-Head-Change    Column Row Layer    Max.-Flux-Residual            L2-New               L2-Old           Solver-Max-Delh
          0                 1           3            77   94     1      -0.8918284060E+00      77   94    1      -0.2148335413E+04      0.8657412038E+04      0.4387761886E+02     -0.8918284060E+00
          0                 2           2           232   94     1       0.8281725784E-01      77   94    1       0.2147286809E+03      0.8656186091E+03      0.8657412038E+04      0.8281725784E-01

    ------------------------------------------------
       NWT REQUIRED            2 OUTER ITERATIONS 
       AND A TOTAL OF          5 INNER ITERATIONS.
    ------------------------------------------------

 NO OUTPUT CONTROL FOR STRESS PERIOD   15   TIME STEP    5

 WELLS WITH REDUCED PUMPING FOR STRESS PERIOD    15 TIME STEP     5
   LAY   ROW   COL         APPL.Q          ACT.Q        GW-HEAD       CELL-BOT
     1    92    77  -0.234339E+04  -0.530476E+03  -0.855721E+02  -0.930000E+02


 SOLVING FOR HEAD 
                                                   Max.-Head-Change                        Max.-Flux-Residual
  Residual-Control   Outer-Iter.   Inner-Iter.     Column Row Layer    Max.-Head-Change    Column Row Layer    Max.-Flux-Residual            L2-New               L2-Old           Solver-Max-Delh
          0                 1           3            77   94     1      -0.8911665250E+00      77   94    1      -0.2146653368E+04      0.8605737275E+04      0.4328017532E+02     -0.8911665250E+00
          0                 2           2            77   94     1       0.7693366006E-01      77   94    1       0.2145606304E+03      0.8611511651E+03      0.8605737275E+04      0.7693366006E-01

    ------------------------------------------------
       NWT REQUIRED            2 OUTER ITERATIONS 
       AND A TOTAL OF          5 INNER ITERATIONS.
    ------------------------------------------------

 NO OUTPUT CONTROL FOR STRESS PERIOD   15   TIME STEP    6

 WELLS WITH REDUCED PUMPING FOR STRESS PERIOD    15 TIME STEP     6
   LAY   ROW   COL         APPL.Q          ACT.Q        GW-HEAD       CELL-BOT
     1    92    77  -0.234339E+04  -0.530022E+03  -0.855757E+02  -0.930000E+02


 SOLVING FOR HEAD 
                                                   Max.-Head-Change                        Max.-Flux-Residual
  Residual-Control   Outer-Iter.   Inner-Iter.     Column Row Layer    Max.-Head-Change    Column Row Layer    Max.-Flux-Residual            L2-New               L2-Old           Solver-Max-Delh
          0                 1           3            77   94     1      -0.8905053934E+00      77   94    1      -0.2144973319E+04      0.8559232207E+04      0.4305680936E+02     -0.8905053934E+00
          0                 2           2            77   94     1       0.7687660595E-01      77   94    1       0.2143927793E+03      0.8558094048E+03      0.8559232207E+04      0.7687660595E-01

    ------------------------------------------------
       NWT REQUIRED            2 OUTER ITERATIONS 
       AND A TOTAL OF          5 INNER ITERATIONS.
    ------------------------------------------------

 NO OUTPUT CONTROL FOR STRESS PERIOD   15   TIME STEP    7

 WELLS WITH REDUCED PUMPING FOR STRESS PERIOD    15 TIME STEP     7
   LAY   ROW   COL         APPL.Q          ACT.Q        GW-HEAD       CELL-BOT
     1    92    77  -0.234339E+04  -0.529638E+03  -0.855788E+02  -0.930000E+02


 SOLVING FOR HEAD 
                                                   Max.-Head-Change                        Max.-Flux-Residual
  Residual-Control   Outer-Iter.   Inner-Iter.     Column Row Layer    Max.-Head-Change    Column Row Layer    Max.-Flux-Residual            L2-New               L2-Old           Solver-Max-Delh
          0                 1           3            77   94     1      -0.8898450322E+00      77   94    1      -0.2143295317E+04      0.8516384982E+04      0.4278974680E+02     -0.8898450322E+00
          0                 2           2            77   94     1       0.7681961854E-01      77   94    1       0.2142251326E+03      0.8515251535E+03      0.8516384982E+04      0.7681961854E-01

    ------------------------------------------------
       NWT REQUIRED            2 OUTER ITERATIONS 
       AND A TOTAL OF          5 INNER ITERATIONS.
    ------------------------------------------------

 NO OUTPUT CONTROL FOR STRESS PERIOD   15   TIME STEP    8

 WELLS WITH REDUCED PUMPING FOR STRESS PERIOD    15 TIME STEP     8
   LAY   ROW   COL         APPL.Q          ACT.Q        GW-HEAD       CELL-BOT
     1    92    77  -0.234339E+04  -0.529290E+03  -0.855816E+02  -0.930000E+02


 SOLVING FOR HEAD 
                                                   Max.-Head-Change                        Max.-Flux-Residual
  Residual-Control   Outer-Iter.   Inner-Iter.     Column Row Layer    Max.-Head-Change    Column Row Layer    Max.-Flux-Residual            L2-New               L2-Old           Solver-Max-Delh
          0                 1           3            77   94     1      -0.8891854374E+00      77   94    1      -0.2141619350E+04      0.8476389519E+04      0.4257557174E+02     -0.8891854374E+00
          0                 2           2            77   94     1       0.7676269753E-01      77   94    1       0.2140576897E+03      0.8478501609E+03      0.8476389519E+04      0.7676269753E-01

    ------------------------------------------------
       NWT REQUIRED            2 OUTER ITERATIONS 
       AND A TOTAL OF          5 INNER ITERATIONS.
    ------------------------------------------------

 NO OUTPUT CONTROL FOR STRESS PERIOD   15   TIME STEP    9

 WELLS WITH REDUCED PUMPING FOR STRESS PERIOD    15 TIME STEP     9
   LAY   ROW   COL         APPL.Q          ACT.Q        GW-HEAD       CELL-BOT
     1    92    77  -0.234339E+04  -0.528962E+03  -0.855843E+02  -0.930000E+02


 SOLVING FOR HEAD 
                                                   Max.-Head-Change                        Max.-Flux-Residual
  Residual-Control   Outer-Iter.   Inner-Iter.     Column Row Layer    Max.-Head-Change    Column Row Layer    Max.-Flux-Residual            L2-New               L2-Old           Solver-Max-Delh
          0                 1           3            77   94     1      -0.8885265922E+00      77   94    1      -0.2139945380E+04      0.8438710460E+04      0.4239360289E+02     -0.8885265922E+00
          0                 2           2            77   94     1       0.7670584096E-01      77   94    1       0.2138904455E+03      0.8438046693E+03      0.8438710460E+04      0.7670584096E-01

    ------------------------------------------------
       NWT REQUIRED            2 OUTER ITERATIONS 
       AND A TOTAL OF          5 INNER ITERATIONS.
    ------------------------------------------------

 OUTPUT CONTROL FOR STRESS PERIOD   15   TIME STEP   10
    SAVE HEAD FOR ALL LAYERS

 WELLS WITH REDUCED PUMPING FOR STRESS PERIOD    15 TIME STEP    10
   LAY   ROW   COL         APPL.Q          ACT.Q        GW-HEAD       CELL-BOT
     1    92    77  -0.234339E+04  -0.528644E+03  -0.855868E+02  -0.930000E+02


 HEAD WILL BE SAVED ON UNIT   51 AT END OF TIME STEP   10, STRESS PERIOD   15
1
  VOLUMETRIC BUDGET FOR ENTIRE MODEL AT END OF TIME STEP   10, STRESS PERIOD  15
  ------------------------------------------------------------------------------

     CUMULATIVE VOLUMES      L**3       RATES FOR THIS TIME STEP      L**3/T
     ------------------                 ------------------------

           IN:                                      IN:
           ---                                      ---
             STORAGE =   224537776.0000               STORAGE =      455472.1875
       CONSTANT HEAD =    21993972.0000         CONSTANT HEAD =       50278.9336
               WELLS =           0.0000                 WELLS =           0.0000
              DRAINS =           0.0000                DRAINS =           0.0000
                  ET =           0.0000                    ET =           0.0000
            RECHARGE =    77326936.0000              RECHARGE =      153119.4062

            TOTAL IN =   323858688.0000              TOTAL IN =      658870.5000

          OUT:                                     OUT:
          ----                                     ----
             STORAGE =    85200952.0000               STORAGE =       28287.2480
       CONSTANT HEAD =           0.0000         CONSTANT HEAD =           0.0000
               WELLS =   160882704.0000                 WELLS =      487281.9375
              DRAINS =    51362444.0000                DRAINS =      101110.4766
                  ET =    25979238.0000                    ET =       40062.0000
            RECHARGE =       81860.0000              RECHARGE =           0.0000

           TOTAL OUT =   323507168.0000             TOTAL OUT =      656741.6875

            IN - OUT =      351520.0000              IN - OUT =        2128.8125

 PERCENT DISCREPANCY =           0.11     PERCENT DISCREPANCY =           0.32






         TIME SUMMARY AT END OF TIME STEP   10 IN STRESS PERIOD   15
                    SECONDS     MINUTES      HOURS       DAYS        YEARS
                    -----------------------------------------------------------
   TIME STEP LENGTH 2.62656E+05  4377.6      72.960      3.0400     8.32307E-03
 STRESS PERIOD TIME 2.62656E+06  43776.      729.60      30.400     8.32307E-02
         TOTAL TIME 3.93984E+07 6.56640E+05  10944.      456.00      1.2485    
1
1
                            STRESS PERIOD NO.   16, LENGTH =   30.40000    
                            -----------------------------------------------

                              NUMBER OF TIME STEPS =    10

                               MULTIPLIER FOR DELT =     1.000

                            INITIAL TIME STEP SIZE =   3.040000    

 WELL NO.  LAYER   ROW   COL   STRESS RATE         
 --------------------------------------------------
      1      1     69    225      -1296.    
      2      1     71    224      -6048.    
      3      1     74    220      -6134.    
      4      1     73    220       0.000    
      5      1     71    223      -6221.    
      6      1     71    223      -7344.    
      7      1     72    223      -6394.    
      8      1     92    173      -6653.    
      9      1     94    174      -5875.    
     10      1     93    175       0.000    
     11      1    203    328      -5875.    
     12      1    438    460      -0.000    
     13      1    436    461      -0.000    
     14      1    410    454      -0.000    
     15      1    433    460      -0.000    
     16      1    431    462      -0.000    
     17      1    417    459      -0.000    
     18      1    418    458      -0.000    
     19      1    414    455      -0.000    
     20      1    443    464      -0.000    
     21      1    379    425      -0.000    
     22      1    362    405      -0.000    
     23      1    361    405      -0.000    
     24      1    362    406      -0.000    
     25      1    363    408      -0.000    
     26      1    364    410      -0.000    
     27      1    369    418      -0.000    
     28      1    367    417      -0.000    
     29      1    365    415      -0.000    
     30      1    402    447      -0.000    
     31      1    400    446      -0.000    
     32      1    392    444      -0.000    
     33      1    391    441      -0.000    
     34      1    403    448      -0.000    
     35      1    405    447      -0.000    
     36      1    362    410      -0.000    
     37      1    362    411      -0.000    
     38      1    363    412      -0.000    
     39      1    375    421      -0.000    
     40      1    383    430      -0.000    
     41      1    397    445      -0.000    
     42      1    360    403      -0.000    
     43      1    350    401      -0.000    
     44      1    346    393      -49.88    
     45      1    333    387      -49.88    
     46      1    328    384      -49.88    
     47      1    326    383      -49.88    
     48      1    323    378      -49.88    
     49      1    321    378      -49.88    
     50      1    322    376      -49.88    
     51      1    316    374      -49.88    
     52      1    311    371      -49.88    
     53      1    307    369      -49.88    
     54      1    305    368      -49.88    
     55      1    303    368      -49.88    
     56      1    300    369      -49.88    
     57      1    293    364      -49.88    
     58      1    292    362      -49.88    
     59      1    278    350      -49.88    
     60      1    274    351      -49.88    
     61      1    273    350      -49.88    
     62      1    271    350      -49.88    
     63      1    267    348      -49.88    
     64      1    263    348      -49.88    
     65      1    263    348      -49.88    
     66      1    248    347      -49.88    
     67      1    243    342      -49.88    
     68      1    242    339      -49.88    
     69      1    238    341      -49.88    
     70      1    233    340      -49.88    
     71      1    232    340      -49.88    
     72      1    229    341      -49.88    
     73      1    227    341      -49.88    
     74      1    219    342      -49.88    
     75      1    219    336      -49.88    
     76      1    199    329      -49.88    
     77      1    191    332      -126.5    
     78      1    190    332      -126.5    
     79      1    130    310      -126.5    
     80      1    123    305      -126.5    
     81      1    104    289      -126.5    
     82      1     96    287      -510.6    
     83      1     95    284      -510.6    
     84      1     95    280      -510.6    
     85      1     93    276      -510.6    
     86      1     94    275      -510.6    
     87      1     90    277      -510.6    
     88      1     90    273      -510.6    
     89      1     86    271      -510.6    
     90      1     85    270      -510.6    
     91      1     84    265      -510.6    
     92      1     85    265      -510.6    
     93      1     84    264      -510.6    
     94      1     79    263      -510.6    
     95      1     79    263      -510.6    
     96      1     76    262      -510.6    
     97      1     73    257      -510.6    
     98      1     74    255      -510.6    
     99      1     71    255      -510.6    
    100      1     66    253      -510.6    
    101      1     68    252      -510.6    
    102      1     69    250      -510.6    
    103      1     65    248      -510.6    
    104      1     68    248      -510.6    
    105      1     69    247      -510.6    
    106      1     73    247      -510.6    
    107      1     64    246      -510.6    
    108      1     69    245      -510.6    
    109      1     72    245      -510.6    
    110      1     69    241      -510.6    
    111      1     73    238      -510.6    
    112      1     70    238      -510.6    
    113      1     76    263      -510.6    
    114      1     66    232      -620.9    
    115      1     69    229      -620.9    
    116      1     71    228      -620.9    
    117      1     69    227      -620.9    
    118      1     72    219      -620.9    
    119      1     72    218      -620.9    
    120      1     72    218      -620.9    
    121      1     73    217      -620.9    
    122      1     77    219      -620.9    
    123      1     78    219      -620.9    
    124      1     83    213      -620.9    
    125      1     77    213      -620.9    
    126      1     81    211      -620.9    
    127      1     81    210      -620.9    
    128      1     81    210      -620.9    
    129      1     82    208      -620.9    
    130      1     80    205      -620.9    
    131      1     86    202      -620.9    
    132      1     84    200      -620.9    
    133      1     89    200      -620.9    
    134      1     89    199      -620.9    
    135      1     88    199      -620.9    
    136      1     86    199      -620.9    
    137      1     85    199      -620.9    
    138      1     82    197      -620.9    
    139      1     86    197      -620.9    
    140      1     88    198      -620.9    
    141      1     90    192      -620.9    
    142      1     89    191      -620.9    
    143      1     84    192      -620.9    
    144      1     91    189      -620.9    
    145      1     92    185      -620.9    
    146      1     87    183      -620.9    
    147      1     92    182      -620.9    
    148      1     90    182      -620.9    
    149      1     88    179      -620.9    
    150      1     89    176      -620.9    
    151      1     92    172      -620.9    
    152      1     93    164      -620.9    
    153      1     94    162      -620.9    
    154      1    103    156      -620.9    
    155      1    103    156      -620.9    
    156      1     96    154      -620.9    
    157      1     97    153      -620.9    
    158      1    122    139      -620.9    
    159      1     92     77      -620.9    
    160      1     94     77      -620.9    
    161      1     94     73      -620.9    
    162      1     97    152      -620.9    
    163      1    118    337      -666.7    
    164      1    133    319      -2678.    
    165      1    131    320      -3951.    
    166      1    133    321      -2956.    
    167      1    161    329      -2141.    
    168      1    178    330      -551.0    
    169      1    163    330      -1122.    
    170      1    131    320      -2473.    
    171      1    129    315      -3937.    
    172      1    162    329      -1959.    
    173      1    131    311      -826.1    
    174      1    221    340      -1994.    
    175      1    220    340      -1034.    
    176      1    221    340      -667.7    
    177      1    137    322      -2082.    
    178      1    137    321      -1407.    
    179      1    185    329      -2012.    
    180      1    183    329      -1473.    
    181      1    175    329      -585.3    
    182      1     79    243      -1490.    
    183      1     77    245      -2414.    
    184      1    199    329      -1617.    
    185      1    198    330      -2514.    
    186      1    140    328      -972.1    
    187      1    143    327      -863.6    
    188      1    139    327      -1331.    

    188 WELLS

 REUSING NON-PARAMETER DRAINS FROM LAST STRESS PERIOD

   1061 DRAINS

 REUSING SURF FROM LAST STRESS PERIOD

 REUSING EVTR FROM LAST STRESS PERIOD

 REUSING EXDP FROM LAST STRESS PERIOD



                           RECHARGE
 READING ON UNIT   19 WITH FORMAT: (510E15.6)          

 SOLVING FOR HEAD 
                                                   Max.-Head-Change                        Max.-Flux-Residual
  Residual-Control   Outer-Iter.   Inner-Iter.     Column Row Layer    Max.-Head-Change    Column Row Layer    Max.-Flux-Residual            L2-New               L2-Old           Solver-Max-Delh
          0                 1           3           263   79     1       0.1834376136E+02     348  263    1       0.6752729384E+04      0.3176108851E+05      0.4218955756E+02      0.1834376136E+02
          0                 2           2           263   79     1      -0.1744927452E+01     348  263    1      -0.7781830898E+03      0.3297699336E+04      0.3176108851E+05     -0.1744927452E+01
          0                 3           2           263   79     1      -0.8907472171E-01     348  263    1      -0.3917917699E+02      0.1652873953E+03      0.3297699336E+04     -0.8907472171E-01

    ------------------------------------------------
       NWT REQUIRED            3 OUTER ITERATIONS 
       AND A TOTAL OF          7 INNER ITERATIONS.
    ------------------------------------------------

 NO OUTPUT CONTROL FOR STRESS PERIOD   16   TIME STEP    1

 WELLS WITH REDUCED PUMPING FOR STRESS PERIOD    16 TIME STEP     1
   LAY   ROW   COL         APPL.Q          ACT.Q        GW-HEAD       CELL-BOT
     1    92    77  -0.620891E+03  -0.214740E+03  -0.834616E+02  -0.930000E+02


 SOLVING FOR HEAD 
                                                   Max.-Head-Change                        Max.-Flux-Residual
  Residual-Control   Outer-Iter.   Inner-Iter.     Column Row Layer    Max.-Head-Change    Column Row Layer    Max.-Flux-Residual            L2-New               L2-Old           Solver-Max-Delh
          0                 1           3           263   79     1       0.7122999033E+01     393  346    1       0.2855125849E+04      0.1395538828E+05      0.1652873953E+03      0.7122999033E+01
          0                 2           2           263   79     1      -0.6515596232E+00     393  346    1      -0.2856855371E+03      0.1404565639E+04      0.1395538828E+05     -0.6515596232E+00
          0                 3           2           457  456     1       0.3849796299E-01     393  346    1      -0.1428556061E+02      0.7025090409E+02      0.1404565639E+04      0.3849796299E-01

    ------------------------------------------------
       NWT REQUIRED            3 OUTER ITERATIONS 
       AND A TOTAL OF          7 INNER ITERATIONS.
    ------------------------------------------------

 NO OUTPUT CONTROL FOR STRESS PERIOD   16   TIME STEP    2

 WELLS WITH REDUCED PUMPING FOR STRESS PERIOD    16 TIME STEP     2
   LAY   ROW   COL         APPL.Q          ACT.Q        GW-HEAD       CELL-BOT
     1    92    77  -0.620891E+03  -0.275894E+03  -0.818441E+02  -0.930000E+02


 SOLVING FOR HEAD 
                                                   Max.-Head-Change                        Max.-Flux-Residual
  Residual-Control   Outer-Iter.   Inner-Iter.     Column Row Layer    Max.-Head-Change    Column Row Layer    Max.-Flux-Residual            L2-New               L2-Old           Solver-Max-Delh
          0                 1           3           263   79     1       0.3036389518E+01     393  346    1       0.2478973982E+04      0.1054929212E+05      0.7025090409E+02      0.3036389518E+01
          0                 2           2           263   79     1      -0.2725522053E+00     393  346    1      -0.2480520444E+03      0.1059735021E+04      0.1054929212E+05     -0.2725522053E+00
          0                 3           2           457  456     1       0.3906825497E-01     393  346    1      -0.1240375014E+02      0.5298546806E+02      0.1059735021E+04      0.3906825497E-01

    ------------------------------------------------
       NWT REQUIRED            3 OUTER ITERATIONS 
       AND A TOTAL OF          7 INNER ITERATIONS.
    ------------------------------------------------

 NO OUTPUT CONTROL FOR STRESS PERIOD   16   TIME STEP    3

 WELLS WITH REDUCED PUMPING FOR STRESS PERIOD    16 TIME STEP     3
   LAY   ROW   COL         APPL.Q          ACT.Q        GW-HEAD       CELL-BOT
     1    92    77  -0.620891E+03  -0.323189E+03  -0.806184E+02  -0.930000E+02


 SOLVING FOR HEAD 
                                                   Max.-Head-Change                        Max.-Flux-Residual
  Residual-Control   Outer-Iter.   Inner-Iter.     Column Row Layer    Max.-Head-Change    Column Row Layer    Max.-Flux-Residual            L2-New               L2-Old           Solver-Max-Delh
          0                 1           3           263   79     1       0.1457823364E+01     393  346    1       0.2156942470E+04      0.8943967956E+04      0.5298546806E+02      0.1457823364E+01
          0                 2           2           263   79     1      -0.1276344699E+00     393  346    1      -0.2158281772E+03      0.8967292228E+03      0.8943967956E+04     -0.1276344699E+00
          0                 3           2           457  456     1       0.3963393994E-01     393  346    1      -0.1079240293E+02      0.4484276683E+02      0.8967292228E+03      0.3963393994E-01

    ------------------------------------------------
       NWT REQUIRED            3 OUTER ITERATIONS 
       AND A TOTAL OF          7 INNER ITERATIONS.
    ------------------------------------------------

 NO OUTPUT CONTROL FOR STRESS PERIOD   16   TIME STEP    4

 WELLS WITH REDUCED PUMPING FOR STRESS PERIOD    16 TIME STEP     4
   LAY   ROW   COL         APPL.Q          ACT.Q        GW-HEAD       CELL-BOT
     1    92    77  -0.620891E+03  -0.358926E+03  -0.796890E+02  -0.930000E+02


 SOLVING FOR HEAD 
                                                   Max.-Head-Change                        Max.-Flux-Residual
  Residual-Control   Outer-Iter.   Inner-Iter.     Column Row Layer    Max.-Head-Change    Column Row Layer    Max.-Flux-Residual            L2-New               L2-Old           Solver-Max-Delh
          0                 1           3           264   78     1       0.1041410100E+01     383  326    1       0.1936937531E+04      0.7974557449E+04      0.4484276683E+02      0.1041410100E+01
          0                 2           2           264   78     1      -0.9128520589E-01     383  326    1      -0.1938184785E+03      0.7986263917E+03      0.7974557449E+04     -0.9128520589E-01

    ------------------------------------------------
       NWT REQUIRED            2 OUTER ITERATIONS 
       AND A TOTAL OF          5 INNER ITERATIONS.
    ------------------------------------------------

 NO OUTPUT CONTROL FOR STRESS PERIOD   16   TIME STEP    5

 WELLS WITH REDUCED PUMPING FOR STRESS PERIOD    16 TIME STEP     5
   LAY   ROW   COL         APPL.Q          ACT.Q        GW-HEAD       CELL-BOT
     1    92    77  -0.620891E+03  -0.385846E+03  -0.789794E+02  -0.930000E+02


 SOLVING FOR HEAD 
                                                   Max.-Head-Change                        Max.-Flux-Residual
  Residual-Control   Outer-Iter.   Inner-Iter.     Column Row Layer    Max.-Head-Change    Column Row Layer    Max.-Flux-Residual            L2-New               L2-Old           Solver-Max-Delh
          0                 1           3           264   78     1       0.8527063986E+00     383  326    1       0.1748756484E+04      0.7308783130E+04      0.3996984687E+02      0.8527063986E+00
          0                 2           2           264   78     1      -0.7545811595E-01     383  326    1      -0.1749959497E+03      0.7310792718E+03      0.7308783130E+04     -0.7545811595E-01

    ------------------------------------------------
       NWT REQUIRED            2 OUTER ITERATIONS 
       AND A TOTAL OF          5 INNER ITERATIONS.
    ------------------------------------------------

 NO OUTPUT CONTROL FOR STRESS PERIOD   16   TIME STEP    6

 WELLS WITH REDUCED PUMPING FOR STRESS PERIOD    16 TIME STEP     6
   LAY   ROW   COL         APPL.Q          ACT.Q        GW-HEAD       CELL-BOT
     1    92    77  -0.620891E+03  -0.405986E+03  -0.784394E+02  -0.930000E+02


 SOLVING FOR HEAD 
                                                   Max.-Head-Change                        Max.-Flux-Residual
  Residual-Control   Outer-Iter.   Inner-Iter.     Column Row Layer    Max.-Head-Change    Column Row Layer    Max.-Flux-Residual            L2-New               L2-Old           Solver-Max-Delh
          0                 1           3           343  217     1       0.7479127486E+00     383  326    1       0.1584791888E+04      0.6819440524E+04      0.3655578900E+02      0.7479127486E+00
          0                 2           2           343  217     1      -0.6506453576E-01     383  326    1      -0.1585920604E+03      0.6835976214E+03      0.6819440524E+04     -0.6506453576E-01

    ------------------------------------------------
       NWT REQUIRED            2 OUTER ITERATIONS 
       AND A TOTAL OF          5 INNER ITERATIONS.
    ------------------------------------------------

 NO OUTPUT CONTROL FOR STRESS PERIOD   16   TIME STEP    7

 WELLS WITH REDUCED PUMPING FOR STRESS PERIOD    16 TIME STEP     7
   LAY   ROW   COL         APPL.Q          ACT.Q        GW-HEAD       CELL-BOT
     1    92    77  -0.620891E+03  -0.421086E+03  -0.780277E+02  -0.930000E+02


 SOLVING FOR HEAD 
                                                   Max.-Head-Change                        Max.-Flux-Residual
  Residual-Control   Outer-Iter.   Inner-Iter.     Column Row Layer    Max.-Head-Change    Column Row Layer    Max.-Flux-Residual            L2-New               L2-Old           Solver-Max-Delh
          0                 1           3           343  217     1       0.7031811522E+00     383  326    1       0.1441490514E+04      0.6443140130E+04      0.3418107526E+02      0.7031811522E+00
          0                 2           2           232   95     1       0.3234242104E+00     383  326    1      -0.1442530306E+03      0.6445861701E+03      0.6443140130E+04      0.3234242104E+00
          0                 3           2           232   95     1       0.3089820235E+00     383  326    1      -0.7213423961E+01      0.3223133528E+02      0.6445861701E+03      0.3089820235E+00
          0                 4           2           232   95     1       0.2948333591E+00     383  326    1      -0.3606008221E+00      0.1611289988E+01      0.3223133528E+02      0.2948333591E+00
          0                 5           2           232   95     1       0.2813018581E+00     383  326    1      -0.1802282469E-01      0.8139078068E-01      0.1611289988E+01      0.2813018581E+00
          0                 6           2           232   95     1       0.2683727852E+00     457  456    1       0.1002485020E-01      0.1241532259E-01      0.8139078068E-01      0.2683727852E+00
          0                 7           2           232   95     1       0.2560218335E+00     457  456    1       0.1001323082E-01      0.1169098414E-01      0.1241532259E-01      0.2560218335E+00
          0                 8           2           232   95     1       0.2442246496E+00     457  456    1       0.1000162563E-01      0.1163724606E-01      0.1169098414E-01      0.2442246496E+00
          0                 9           2           232   95     1       0.2329576847E+00     457  456    1       0.9990034021E-02      0.1158861897E-01      0.1163724606E-01      0.2329576847E+00
          0                10           2           232   95     1       0.2221982843E+00     457  456    1       0.9978455862E-02      0.1154306334E-01      0.1158861897E-01      0.2221982843E+00
                                                   Max.-Head-Change                        Max.-Flux-Residual
  Residual-Control   Outer-Iter.   Inner-Iter.     Column Row Layer    Max.-Head-Change    Column Row Layer    Max.-Flux-Residual            L2-New               L2-Old           Solver-Max-Delh
          0                11           2           232   95     1       0.2119246663E+00     457  456    1       0.9966891118E-02      0.1150030605E-01      0.1154306334E-01      0.2119246663E+00
          0                12           2           232   95     1       0.2021158905E+00     457  456    1       0.9955339768E-02      0.1146011177E-01      0.1150030605E-01      0.2021158905E+00
          0                13           2           232   95     1       0.1927518326E+00     457  456    1       0.9943801796E-02      0.1142226847E-01      0.1146011177E-01      0.1927518326E+00
          0                14           2           232   95     1       0.1838131594E+00     457  456    1       0.9932277187E-02      0.1138658247E-01      0.1142226847E-01      0.1838131594E+00
          0                15           2           232   95     1       0.1752813041E+00     457  456    1       0.9920765923E-02      0.1135287583E-01      0.1138658247E-01      0.1752813041E+00
          0                16           2           232   95     1       0.1671384429E+00     457  456    1       0.9909267986E-02      0.1132098471E-01      0.1135287583E-01      0.1671384429E+00
          0                17           2           232   95     1       0.1593674711E+00     457  456    1       0.9897783363E-02      0.1129075821E-01      0.1132098471E-01      0.1593674711E+00
          0                18           2           232   95     1       0.1519519797E+00     457  456    1       0.9886312040E-02      0.1126205738E-01      0.1129075821E-01      0.1519519797E+00
          0                19           2           232   95     1       0.1448762320E+00     457  456    1       0.9874853998E-02      0.1123475433E-01      0.1126205738E-01      0.1448762320E+00
          0                20           2           232   95     1       0.1381251411E+00     457  456    1       0.9863409224E-02      0.1120873146E-01      0.1123475433E-01      0.1381251411E+00
                                                   Max.-Head-Change                        Max.-Flux-Residual
  Residual-Control   Outer-Iter.   Inner-Iter.     Column Row Layer    Max.-Head-Change    Column Row Layer    Max.-Flux-Residual            L2-New               L2-Old           Solver-Max-Delh
          0                21           2           232   95     1       0.1316842468E+00     457  456    1       0.9851977701E-02      0.1118388066E-01      0.1120873146E-01      0.1316842468E+00
          0                22           2           232   95     1       0.1255396937E+00     457  456    1       0.9840559417E-02      0.1116010270E-01      0.1118388066E-01      0.1255396937E+00
          0                23           2           232   95     1       0.1196782096E+00     457  456    1       0.9829154351E-02      0.1113730645E-01      0.1116010270E-01      0.1196782096E+00
          0                24           2           232   95     1       0.1140870839E+00     457  456    1       0.9817762494E-02      0.1111540836E-01      0.1113730645E-01      0.1140870839E+00
          0                25           2           232   95     1       0.1087541471E+00     457  456    1       0.9806383826E-02      0.1109433182E-01      0.1111540836E-01      0.1087541471E+00
          0                26           2           232   95     1       0.1036677502E+00     457  456    1       0.9795018335E-02      0.1107400667E-01      0.1109433182E-01      0.1036677502E+00
          0                27           2           232   95     1       0.9881674501E-01     457  456    1       0.9783666003E-02      0.1105436863E-01      0.1107400667E-01      0.9881674501E-01

    ------------------------------------------------
       NWT REQUIRED           27 OUTER ITERATIONS 
       AND A TOTAL OF         55 INNER ITERATIONS.
    ------------------------------------------------

 NO OUTPUT CONTROL FOR STRESS PERIOD   16   TIME STEP    8

 WELLS WITH REDUCED PUMPING FOR STRESS PERIOD    16 TIME STEP     8
   LAY   ROW   COL         APPL.Q          ACT.Q        GW-HEAD       CELL-BOT
     1    92    77  -0.620891E+03  -0.432385E+03  -0.777149E+02  -0.930000E+02


 SOLVING FOR HEAD 
                                                   Max.-Head-Change                        Max.-Flux-Residual
  Residual-Control   Outer-Iter.   Inner-Iter.     Column Row Layer    Max.-Head-Change    Column Row Layer    Max.-Flux-Residual            L2-New               L2-Old           Solver-Max-Delh
          0                 1           3           343  217     1       0.6534630278E+00     383  326    1       0.1316501925E+04      0.6146044547E+04      0.1105436863E-01      0.6534630278E+00
          0                 2           2           232   95     1       0.1290022849E+00     383  326    1      -0.1317448339E+03      0.6146574296E+03      0.6146044547E+04      0.1290022849E+00
          0                 3           2           232   95     1       0.1203247157E+00     383  326    1      -0.6587944775E+01      0.3105703928E+02      0.6146574296E+03      0.1203247157E+00
          0                 4           2           232   95     1       0.1120032545E+00     196   76    1      -0.5021339945E+00      0.1693322487E+01      0.3105703928E+02      0.1120032545E+00
          0                 5           2           232   95     1       0.1042433973E+00     196   76    1      -0.8912536574E-01      0.1458510357E+00      0.1693322487E+01      0.1042433973E+00
          0                 6           2           232   95     1       0.9701697582E-01     196   76    1      -0.2389113277E-01      0.3057432898E-01      0.1458510357E+00      0.9701697582E-01

    ------------------------------------------------
       NWT REQUIRED            6 OUTER ITERATIONS 
       AND A TOTAL OF         13 INNER ITERATIONS.
    ------------------------------------------------

 NO OUTPUT CONTROL FOR STRESS PERIOD   16   TIME STEP    9

 WELLS WITH REDUCED PUMPING FOR STRESS PERIOD    16 TIME STEP     9
   LAY   ROW   COL         APPL.Q          ACT.Q        GW-HEAD       CELL-BOT
     1    92    77  -0.620891E+03  -0.440913E+03  -0.774756E+02  -0.930000E+02


 SOLVING FOR HEAD 
                                                   Max.-Head-Change                        Max.-Flux-Residual
  Residual-Control   Outer-Iter.   Inner-Iter.     Column Row Layer    Max.-Head-Change    Column Row Layer    Max.-Flux-Residual            L2-New               L2-Old           Solver-Max-Delh
          0                 1           3           343  217     1       0.6031013550E+00     383  326    1       0.1206545950E+04      0.5904144442E+04      0.3057432898E-01      0.6031013550E+00
          0                 2           2           232   95     1       0.1145239580E+00     383  326    1      -0.1207399914E+03      0.5953339500E+03      0.5904144442E+04      0.1145239580E+00
          0                 3           2           232   95     1       0.1035805052E+00     409  366    1      -0.6529814471E+01      0.3071642539E+02      0.5953339500E+03      0.1035805052E+00
          0                 4           2           232   95     1       0.9341971098E-01     409  366    1      -0.3264954463E+00      0.1535580753E+01      0.3071642539E+02      0.9341971098E-01

    ------------------------------------------------
       NWT REQUIRED            4 OUTER ITERATIONS 
       AND A TOTAL OF          9 INNER ITERATIONS.
    ------------------------------------------------

 OUTPUT CONTROL FOR STRESS PERIOD   16   TIME STEP   10
    SAVE HEAD FOR ALL LAYERS

 WELLS WITH REDUCED PUMPING FOR STRESS PERIOD    16 TIME STEP    10
   LAY   ROW   COL         APPL.Q          ACT.Q        GW-HEAD       CELL-BOT
     1    92    77  -0.620891E+03  -0.447354E+03  -0.772929E+02  -0.930000E+02


 HEAD WILL BE SAVED ON UNIT   51 AT END OF TIME STEP   10, STRESS PERIOD   16
1
  VOLUMETRIC BUDGET FOR ENTIRE MODEL AT END OF TIME STEP   10, STRESS PERIOD  16
  ------------------------------------------------------------------------------

     CUMULATIVE VOLUMES      L**3       RATES FOR THIS TIME STEP      L**3/T
     ------------------                 ------------------------

           IN:                                      IN:
           ---                                      ---
             STORAGE =   232787808.0000               STORAGE =      240351.0469
       CONSTANT HEAD =    23524928.0000         CONSTANT HEAD =       50425.2344
               WELLS =           0.0000                 WELLS =           0.0000
              DRAINS =           0.0000                DRAINS =           0.0000
                  ET =           0.0000                    ET =           0.0000
            RECHARGE =    79915656.0000              RECHARGE =       85155.7969

            TOTAL IN =   336228384.0000              TOTAL IN =      375932.0625

          OUT:                                     OUT:
          ----                                     ----
             STORAGE =    88694168.0000               STORAGE =       80422.0234
       CONSTANT HEAD =           0.0000         CONSTANT HEAD =           0.0000
               WELLS =   165302528.0000                 WELLS =      145465.2500
              DRAINS =    54573624.0000                DRAINS =      108698.3281
                  ET =    27217148.0000                    ET =       41344.4609
            RECHARGE =       81860.0000              RECHARGE =           0.0000

           TOTAL OUT =   335869344.0000             TOTAL OUT =      375930.0938

            IN - OUT =      359040.0000              IN - OUT =           1.9688

 PERCENT DISCREPANCY =           0.11     PERCENT DISCREPANCY =           0.00






         TIME SUMMARY AT END OF TIME STEP   10 IN STRESS PERIOD   16
                    SECONDS     MINUTES      HOURS       DAYS        YEARS
                    -----------------------------------------------------------
   TIME STEP LENGTH 2.62656E+05  4377.6      72.960      3.0400     8.32307E-03
 STRESS PERIOD TIME 2.62656E+06  43776.      729.60      30.400     8.32307E-02
         TOTAL TIME 4.20250E+07 7.00417E+05  11674.      486.40      1.3317    
1
1
                            STRESS PERIOD NO.   17, LENGTH =   30.40000    
                            -----------------------------------------------

                              NUMBER OF TIME STEPS =    10

                               MULTIPLIER FOR DELT =     1.000

                            INITIAL TIME STEP SIZE =   3.040000    

 WELL NO.  LAYER   ROW   COL   STRESS RATE         
 --------------------------------------------------
      1      1     69    225      -1382.    
      2      1     71    224      -6048.    
      3      1     74    220      -6134.    
      4      1     73    220       0.000    
      5      1     71    223      -6221.    
      6      1     71    223      -7344.    
      7      1     72    223      -6394.    
      8      1     92    173      -6653.    
      9      1     94    174      -5875.    
     10      1     93    175       0.000    
     11      1    203    328      -5875.    
     12      1    438    460      -574.1    
     13      1    436    461      -574.1    
     14      1    410    454      -574.1    
     15      1    433    460      -574.1    
     16      1    431    462      -574.1    
     17      1    417    459      -574.1    
     18      1    418    458      -574.1    
     19      1    414    455      -574.1    
     20      1    443    464      -574.1    
     21      1    379    425      -574.1    
     22      1    362    405      -574.1    
     23      1    361    405      -574.1    
     24      1    362    406      -574.1    
     25      1    363    408      -574.1    
     26      1    364    410      -574.1    
     27      1    369    418      -574.1    
     28      1    367    417      -574.1    
     29      1    365    415      -574.1    
     30      1    402    447      -574.1    
     31      1    400    446      -574.1    
     32      1    392    444      -574.1    
     33      1    391    441      -574.1    
     34      1    403    448      -574.1    
     35      1    405    447      -574.1    
     36      1    362    410      -574.1    
     37      1    362    411      -574.1    
     38      1    363    412      -574.1    
     39      1    375    421      -574.1    
     40      1    383    430      -574.1    
     41      1    397    445      -574.1    
     42      1    360    403      -574.1    
     43      1    350    401      -574.1    
     44      1    346    393      -662.8    
     45      1    333    387      -662.8    
     46      1    328    384      -662.8    
     47      1    326    383      -662.8    
     48      1    323    378      -662.8    
     49      1    321    378      -662.8    
     50      1    322    376      -662.8    
     51      1    316    374      -662.8    
     52      1    311    371      -662.8    
     53      1    307    369      -662.8    
     54      1    305    368      -662.8    
     55      1    303    368      -662.8    
     56      1    300    369      -662.8    
     57      1    293    364      -662.8    
     58      1    292    362      -662.8    
     59      1    278    350      -662.8    
     60      1    274    351      -662.8    
     61      1    273    350      -662.8    
     62      1    271    350      -662.8    
     63      1    267    348      -662.8    
     64      1    263    348      -662.8    
     65      1    263    348      -662.8    
     66      1    248    347      -662.8    
     67      1    243    342      -662.8    
     68      1    242    339      -662.8    
     69      1    238    341      -662.8    
     70      1    233    340      -662.8    
     71      1    232    340      -662.8    
     72      1    229    341      -662.8    
     73      1    227    341      -662.8    
     74      1    219    342      -662.8    
     75      1    219    336      -662.8    
     76      1    199    329      -662.8    
     77      1    191    332      -1033.    
     78      1    190    332      -1033.    
     79      1    130    310      -1033.    
     80      1    123    305      -1033.    
     81      1    104    289      -1033.    
     82      1     96    287      -1045.    
     83      1     95    284      -1045.    
     84      1     95    280      -1045.    
     85      1     93    276      -1045.    
     86      1     94    275      -1045.    
     87      1     90    277      -1045.    
     88      1     90    273      -1045.    
     89      1     86    271      -1045.    
     90      1     85    270      -1045.    
     91      1     84    265      -1045.    
     92      1     85    265      -1045.    
     93      1     84    264      -1045.    
     94      1     79    263      -1045.    
     95      1     79    263      -1045.    
     96      1     76    262      -1045.    
     97      1     73    257      -1045.    
     98      1     74    255      -1045.    
     99      1     71    255      -1045.    
    100      1     66    253      -1045.    
    101      1     68    252      -1045.    
    102      1     69    250      -1045.    
    103      1     65    248      -1045.    
    104      1     68    248      -1045.    
    105      1     69    247      -1045.    
    106      1     73    247      -1045.    
    107      1     64    246      -1045.    
    108      1     69    245      -1045.    
    109      1     72    245      -1045.    
    110      1     69    241      -1045.    
    111      1     73    238      -1045.    
    112      1     70    238      -1045.    
    113      1     76    263      -1045.    
    114      1     66    232      -728.1    
    115      1     69    229      -728.1    
    116      1     71    228      -728.1    
    117      1     69    227      -728.1    
    118      1     72    219      -728.1    
    119      1     72    218      -728.1    
    120      1     72    218      -728.1    
    121      1     73    217      -728.1    
    122      1     77    219      -728.1    
    123      1     78    219      -728.1    
    124      1     83    213      -728.1    
    125      1     77    213      -728.1    
    126      1     81    211      -728.1    
    127      1     81    210      -728.1    
    128      1     81    210      -728.1    
    129      1     82    208      -728.1    
    130      1     80    205      -728.1    
    131      1     86    202      -728.1    
    132      1     84    200      -728.1    
    133      1     89    200      -728.1    
    134      1     89    199      -728.1    
    135      1     88    199      -728.1    
    136      1     86    199      -728.1    
    137      1     85    199      -728.1    
    138      1     82    197      -728.1    
    139      1     86    197      -728.1    
    140      1     88    198      -728.1    
    141      1     90    192      -728.1    
    142      1     89    191      -728.1    
    143      1     84    192      -728.1    
    144      1     91    189      -728.1    
    145      1     92    185      -728.1    
    146      1     87    183      -728.1    
    147      1     92    182      -728.1    
    148      1     90    182      -728.1    
    149      1     88    179      -728.1    
    150      1     89    176      -728.1    
    151      1     92    172      -728.1    
    152      1     93    164      -728.1    
    153      1     94    162      -728.1    
    154      1    103    156      -728.1    
    155      1    103    156      -728.1    
    156      1     96    154      -728.1    
    157      1     97    153      -728.1    
    158      1    122    139      -728.1    
    159      1     92     77      -728.1    
    160      1     94     77      -728.1    
    161      1     94     73      -728.1    
    162      1     97    152      -728.1    
    163      1    118    337      -666.7    
    164      1    133    319      -2678.    
    165      1    131    320      -3951.    
    166      1    133    321      -2956.    
    167      1    161    329      -2141.    
    168      1    178    330      -551.0    
    169      1    163    330      -1122.    
    170      1    131    320      -2473.    
    171      1    129    315      -3937.    
    172      1    162    329      -1959.    
    173      1    131    311      -826.1    
    174      1    221    340      -1994.    
    175      1    220    340      -1034.    
    176      1    221    340      -667.7    
    177      1    137    322      -2082.    
    178      1    137    321      -1407.    
    179      1    185    329      -2012.    
    180      1    183    329      -1473.    
    181      1    175    329      -585.3    
    182      1     79    243      -1490.    
    183      1     77    245      -2414.    
    184      1    199    329      -1617.    
    185      1    198    330      -2514.    
    186      1    140    328      -972.1    
    187      1    143    327      -863.6    
    188      1    139    327      -1331.    

    188 WELLS

 REUSING NON-PARAMETER DRAINS FROM LAST STRESS PERIOD

   1061 DRAINS

 REUSING SURF FROM LAST STRESS PERIOD

 REUSING EVTR FROM LAST STRESS PERIOD

 REUSING EXDP FROM LAST STRESS PERIOD



                           RECHARGE
 READING ON UNIT   19 WITH FORMAT: (510E15.6)          

 SOLVING FOR HEAD 
                                                   Max.-Head-Change                        Max.-Flux-Residual
  Residual-Control   Outer-Iter.   Inner-Iter.     Column Row Layer    Max.-Head-Change    Column Row Layer    Max.-Flux-Residual            L2-New               L2-Old           Solver-Max-Delh
          0                 1           3           263   79     1      -0.2724960453E+01     348  263    1      -0.1201153903E+04      0.7395900943E+04      0.1535580753E+01     -0.2724960453E+01
          0                 2           2           303  100     1       0.2381423255E+00     348  263    1       0.1192291571E+03      0.7392476696E+03      0.7395900943E+04      0.2381423255E+00
          0                 3           2           303  100     1       0.3394311797E+00     348  263    1       0.5954912017E+01      0.3694064459E+02      0.7392476696E+03      0.3394311797E+00
          0                 4           2           303  100     1       0.3342331704E+00     348  263    1       0.2976695774E+00      0.1846682981E+01      0.3694064459E+02      0.3342331704E+00
          0                 5           2           303  100     1       0.3219812255E+00     348  263    1       0.1487747394E-01      0.9308098498E-01      0.1846682981E+01      0.3219812255E+00
          0                 6           2           303  100     1       0.3098671007E+00     457  456    1       0.1007619616E-01      0.1285457778E-01      0.9308098498E-01      0.3098671007E+00
          0                 7           2           303  100     1       0.2980434376E+00     457  456    1       0.1006393528E-01      0.1193725838E-01      0.1285457778E-01      0.2980434376E+00
          0                 8           2           303  100     1       0.2865847693E+00     457  456    1       0.1005169004E-01      0.1187598480E-01      0.1193725838E-01      0.2865847693E+00
          0                 9           2           303  100     1       0.2756220358E+00     457  456    1       0.1003945981E-01      0.1182079318E-01      0.1187598480E-01      0.2756220358E+00
          0                10           2           303  100     1       0.2651294494E+00     457  456    1       0.1002724449E-01      0.1176897843E-01      0.1182079318E-01      0.2651294494E+00
                                                   Max.-Head-Change                        Max.-Flux-Residual
  Residual-Control   Outer-Iter.   Inner-Iter.     Column Row Layer    Max.-Head-Change    Column Row Layer    Max.-Flux-Residual            L2-New               L2-Old           Solver-Max-Delh
          0                11           2           303  100     1       0.2550827359E+00     457  456    1       0.1001504402E-01      0.1172015304E-01      0.1176897843E-01      0.2550827359E+00
          0                12           2           303  100     1       0.2454591855E+00     457  456    1       0.1000285839E-01      0.1167400609E-01      0.1172015304E-01      0.2454591855E+00
          0                13           2           303  100     1       0.2362375521E+00     457  456    1       0.9990687574E-02      0.1163027744E-01      0.1167400609E-01      0.2362375521E+00
          0                14           2           303  100     1       0.2273979375E+00     457  456    1       0.9978531554E-02      0.1158874549E-01      0.1163027744E-01      0.2273979375E+00
          0                15           2           303  100     1       0.2189216835E+00     457  456    1       0.9966390313E-02      0.1154921895E-01      0.1158874549E-01      0.2189216835E+00
          0                16           2           303  100     1       0.2107912736E+00     457  456    1       0.9954263831E-02      0.1151153078E-01      0.1154921895E-01      0.2107912736E+00
          0                17           2           303  100     1       0.2029902444E+00     457  456    1       0.9942152091E-02      0.1147553368E-01      0.1151153078E-01      0.2029902444E+00
          0                18           2           303  100     1       0.1955031051E+00     457  456    1       0.9930055074E-02      0.1144109665E-01      0.1147553368E-01      0.1955031051E+00
          0                19           2           303  100     1       0.1883152649E+00     457  456    1       0.9917972763E-02      0.1140810228E-01      0.1144109665E-01      0.1883152649E+00
          0                20           2           303  100     1       0.1814129672E+00     457  456    1       0.9905905141E-02      0.1137644467E-01      0.1140810228E-01      0.1814129672E+00
                                                   Max.-Head-Change                        Max.-Flux-Residual
  Residual-Control   Outer-Iter.   Inner-Iter.     Column Row Layer    Max.-Head-Change    Column Row Layer    Max.-Flux-Residual            L2-New               L2-Old           Solver-Max-Delh
          0                21           2           303  100     1       0.1747832291E+00     457  456    1       0.9893852188E-02      0.1134602772E-01      0.1137644467E-01      0.1747832291E+00
          0                22           2           303  100     1       0.1684137868E+00     457  456    1       0.9881813888E-02      0.1131676384E-01      0.1134602772E-01      0.1684137868E+00
          0                23           2           303  100     1       0.1622930456E+00     457  456    1       0.9869790222E-02      0.1128925138E-01      0.1131676384E-01      0.1622930456E+00
          0                24           2           303  100     1       0.1564100341E+00     457  456    1       0.9857781174E-02      0.1126143112E-01      0.1128925138E-01      0.1564100341E+00
          0                25           2           303  100     1       0.1507543628E+00     457  456    1       0.9845786723E-02      0.1123512373E-01      0.1126143112E-01      0.1507543628E+00
          0                26           2           303  100     1       0.1453161848E+00     457  456    1       0.9833806854E-02      0.1120972848E-01      0.1123512373E-01      0.1453161848E+00
          0                27           2           303  100     1       0.1400861615E+00     457  456    1       0.9821841549E-02      0.1118514689E-01      0.1120972848E-01      0.1400861615E+00
          0                28           2           303  100     1       0.1350554295E+00     457  456    1       0.9809890789E-02      0.1116132223E-01      0.1118514689E-01      0.1350554295E+00
          0                29           2           303  100     1       0.1302155711E+00     457  456    1       0.9797954558E-02      0.1113820438E-01      0.1116132223E-01      0.1302155711E+00
          0                30           2           303  100     1       0.1255585862E+00     457  456    1       0.9786032836E-02      0.1111574694E-01      0.1113820438E-01      0.1255585862E+00
                                                   Max.-Head-Change                        Max.-Flux-Residual
  Residual-Control   Outer-Iter.   Inner-Iter.     Column Row Layer    Max.-Head-Change    Column Row Layer    Max.-Flux-Residual            L2-New               L2-Old           Solver-Max-Delh
          0                31           2           303  100     1       0.1210768674E+00     457  456    1       0.9774125609E-02      0.1109390672E-01      0.1111574694E-01      0.1210768674E+00
          0                32           2           303  100     1       0.1167631761E+00     457  456    1       0.9762232856E-02      0.1107264355E-01      0.1109390672E-01      0.1167631761E+00
          0                33           2           303  100     1       0.1126106208E+00     457  456    1       0.9750354562E-02      0.1105192000E-01      0.1107264355E-01      0.1126106208E+00
          0                34           2           303  100     1       0.1086126367E+00     457  456    1       0.9738490707E-02      0.1103170118E-01      0.1105192000E-01      0.1086126367E+00
          0                35           2           303  100     1       0.1047629669E+00     457  456    1       0.9726641275E-02      0.1101195460E-01      0.1103170118E-01      0.1047629669E+00
          0                36           2           303  100     1       0.1010556452E+00     457  456    1       0.9714806248E-02      0.1099264994E-01      0.1101195460E-01      0.1010556452E+00
          0                37           2           303  100     1       0.9748497971E-01     457  456    1       0.9702985610E-02      0.1122751483E-01      0.1099264994E-01      0.9748497971E-01

    ------------------------------------------------
       NWT REQUIRED           37 OUTER ITERATIONS 
       AND A TOTAL OF         75 INNER ITERATIONS.
    ------------------------------------------------

 NO OUTPUT CONTROL FOR STRESS PERIOD   17   TIME STEP    1

 WELLS WITH REDUCED PUMPING FOR STRESS PERIOD    17 TIME STEP     1
   LAY   ROW   COL         APPL.Q          ACT.Q        GW-HEAD       CELL-BOT
     1    92    77  -0.728135E+03  -0.512562E+03  -0.775838E+02  -0.930000E+02


 SOLVING FOR HEAD 
                                                   Max.-Head-Change                        Max.-Flux-Residual
  Residual-Control   Outer-Iter.   Inner-Iter.     Column Row Layer    Max.-Head-Change    Column Row Layer    Max.-Flux-Residual            L2-New               L2-Old           Solver-Max-Delh
          0                 1           3           263   79     1      -0.9911106058E+00     139  122    1       0.5988803033E+03      0.5278742524E+04      0.1122751483E-01     -0.9911106058E+00
          0                 2           2           303  100     1       0.2560541458E+00     139  122    1      -0.5989408857E+02      0.5273642720E+03      0.5278742524E+04      0.2560541458E+00
          0                 3           2           303  100     1       0.2298756923E+00     139  122    1      -0.2994750673E+01      0.2635836149E+02      0.5273642720E+03      0.2298756923E+00
          0                 4           2           303  100     1       0.2050766336E+00     139  122    1      -0.1497077515E+00      0.1317711564E+01      0.2635836149E+02      0.2050766336E+00
          0                 5           2           303  100     1       0.1829586200E+00     457  456    1       0.9797509125E-02      0.6682776222E-01      0.1317711564E+01      0.1829586200E+00
          0                 6           2           303  100     1       0.1632747525E+00     457  456    1       0.9785391781E-02      0.1174012065E-01      0.6682776222E-01      0.1632747525E+00
          0                 7           2           303  100     1       0.1457495652E+00     457  456    1       0.9773293262E-02      0.1120569410E-01      0.1174012065E-01      0.1457495652E+00
          0                 8           2           303  100     1       0.1301382590E+00     457  456    1       0.9761210381E-02      0.1114964906E-01      0.1120569410E-01      0.1301382590E+00
          0                 9           2           303  100     1       0.1162251363E+00     457  456    1       0.9749142555E-02      0.1110290734E-01      0.1114964906E-01      0.1162251363E+00
          0                10           2           303  100     1       0.1038201381E+00     457  456    1       0.9737089663E-02      0.1106267215E-01      0.1110290734E-01      0.1038201381E+00
          0                11           2           303  100     1       0.9275556592E-01     457  456    1       0.9725051666E-02      0.1102766009E-01      0.1106267215E-01      0.9275556592E-01

    ------------------------------------------------
       NWT REQUIRED           11 OUTER ITERATIONS 
       AND A TOTAL OF         23 INNER ITERATIONS.
    ------------------------------------------------

 NO OUTPUT CONTROL FOR STRESS PERIOD   17   TIME STEP    2

 WELLS WITH REDUCED PUMPING FOR STRESS PERIOD    17 TIME STEP     2
   LAY   ROW   COL         APPL.Q          ACT.Q        GW-HEAD       CELL-BOT
     1    92    77  -0.728135E+03  -0.503315E+03  -0.778040E+02  -0.930000E+02


 SOLVING FOR HEAD 
                                                   Max.-Head-Change                        Max.-Flux-Residual
  Residual-Control   Outer-Iter.   Inner-Iter.     Column Row Layer    Max.-Head-Change    Column Row Layer    Max.-Flux-Residual            L2-New               L2-Old           Solver-Max-Delh
          0                 1           3           263   79     1      -0.3685838685E+00     139  122    1       0.5791243066E+03      0.4978283583E+04      0.1102766009E-01     -0.3685838685E+00
          0                 2           2           232   53     1       0.1723240455E+00     139  122    1      -0.5791821261E+02      0.4976867358E+03      0.4978283583E+04      0.1723240455E+00
          0                 3           2           232   53     1       0.1686459431E+00     139  122    1      -0.2895956290E+01      0.2488654871E+02      0.4976867358E+03      0.1686459431E+00
          0                 4           2           232   53     1       0.1634559680E+00     139  122    1      -0.1447690890E+00      0.1244129429E+01      0.2488654871E+02      0.1634559680E+00
          0                 5           2           232   53     1       0.1583572828E+00     457  456    1       0.9817081972E-02      0.6318752158E-01      0.1244129429E+01      0.1583572828E+00
          0                 6           2           232   53     1       0.1534223355E+00     457  456    1       0.9804748417E-02      0.1162630574E-01      0.6318752158E-01      0.1534223355E+00
          0                 7           2           232   53     1       0.1486484042E+00     457  456    1       0.9792434193E-02      0.1117034275E-01      0.1162630574E-01      0.1486484042E+00
          0                 8           2           232   53     1       0.1440300717E+00     457  456    1       0.9780136114E-02      0.1113953854E-01      0.1117034275E-01      0.1440300717E+00
          0                 9           2           232   53     1       0.1395618597E+00     457  456    1       0.9767853596E-02      0.1111283683E-01      0.1113953854E-01      0.1395618597E+00
          0                10           2           232   53     1       0.1352384666E+00     457  456    1       0.9755586518E-02      0.1108824504E-01      0.1111283683E-01      0.1352384666E+00
                                                   Max.-Head-Change                        Max.-Flux-Residual
  Residual-Control   Outer-Iter.   Inner-Iter.     Column Row Layer    Max.-Head-Change    Column Row Layer    Max.-Flux-Residual            L2-New               L2-Old           Solver-Max-Delh
          0                11           2           232   53     1       0.1310547982E+00     457  456    1       0.9743334840E-02      0.1106516010E-01      0.1108824504E-01      0.1310547982E+00
          1                11           0           232   53     1       0.9173835717E-01     302  101    1      -0.4438150772E-01      0.4576957023E-01      0.1106516010E-01      0.1310547982E+00
          2                11           0           232   53     1       0.6421684892E-01     457  456    1       0.9734769435E-02      0.1334898892E-01      0.4576957023E-01      0.1310547982E+00
          0                12           2           232   53     1       0.1290702136E+00     457  456    1       0.9737339060E-02      0.1105433731E-01      0.1334898892E-01      0.1290702136E+00
          1                12           0           232   53     1       0.9034914801E-01     302  101    1      -0.1261657487E+00      0.1267486999E+00      0.1105433731E-01      0.1290702136E+00
          2                12           0           232   53     1       0.6324440253E-01     302  101    1      -0.6756188928E-01      0.6851166700E-01      0.1267486999E+00      0.1290702136E+00
          3                12           0           232   53     1       0.4427108102E-01     302  101    1      -0.3306967253E-01      0.3489032861E-01      0.6851166700E-01      0.1290702136E+00
          4                12           0           232   53     1       0.3098975618E-01     302  101    1      -0.1617586709E-01      0.1959887613E-01      0.3489032861E-01      0.1290702136E+00
          5                12           0           232   53     1       0.2169282896E-01     457  456    1       0.9734402936E-02      0.1358832088E-01      0.1959887613E-01      0.1290702136E+00
          0                13           2           232   53     1       0.1284000992E+00     457  456    1       0.9735283773E-02      0.1170414201E-01      0.1358832088E-01      0.1284000992E+00
                                                   Max.-Head-Change                        Max.-Flux-Residual
  Residual-Control   Outer-Iter.   Inner-Iter.     Column Row Layer    Max.-Head-Change    Column Row Layer    Max.-Flux-Residual            L2-New               L2-Old           Solver-Max-Delh
          0                14           2           232   53     1       0.1244366337E+00     457  456    1       0.9723057575E-02      0.1107989159E-01      0.1170414201E-01      0.1244366337E+00
          0                15           2           232   53     1       0.1206003495E+00     457  456    1       0.9710846720E-02      0.1101233260E-01      0.1107989159E-01      0.1206003495E+00
          0                16           2           232   53     1       0.1168868553E+00     457  456    1       0.9698651187E-02      0.1098877511E-01      0.1101233260E-01      0.1168868553E+00
          0                17           2           232   53     1       0.1132919320E+00     457  456    1       0.9686470958E-02      0.1096895805E-01      0.1098877511E-01      0.1132919320E+00
          0                18           2           232   53     1       0.1098115240E+00     457  456    1       0.9674306014E-02      0.1094979772E-01      0.1096895805E-01      0.1098115240E+00
          0                19           2           232   53     1       0.1064417319E+00     457  456    1       0.9662156334E-02      0.1093102935E-01      0.1094979772E-01      0.1064417319E+00
          0                20           2           232   53     1       0.1031788056E+00     457  456    1       0.9650021900E-02      0.1091260328E-01      0.1093102935E-01      0.1031788056E+00
          0                21           2           232   53     1       0.1000191242E+00     457  456    1       0.9637902691E-02      0.1089448965E-01      0.1091260328E-01      0.1000191242E+00
          0                22           2           232   53     1       0.9695922825E-01     457  456    1       0.9625798691E-02      0.1087666442E-01      0.1089448965E-01      0.9695922825E-01

    ------------------------------------------------
       NWT REQUIRED           22 OUTER ITERATIONS 
       AND A TOTAL OF         45 INNER ITERATIONS.
    ------------------------------------------------

 NO OUTPUT CONTROL FOR STRESS PERIOD   17   TIME STEP    3

 WELLS WITH REDUCED PUMPING FOR STRESS PERIOD    17 TIME STEP     3
   LAY   ROW   COL         APPL.Q          ACT.Q        GW-HEAD       CELL-BOT
     1    92    77  -0.728135E+03  -0.496241E+03  -0.779708E+02  -0.930000E+02


 SOLVING FOR HEAD 
                                                   Max.-Head-Change                        Max.-Flux-Residual
  Residual-Control   Outer-Iter.   Inner-Iter.     Column Row Layer    Max.-Head-Change    Column Row Layer    Max.-Flux-Residual            L2-New               L2-Old           Solver-Max-Delh
          0                 1           3           341  217     1       0.2572405554E+00     139  122    1       0.5601366216E+03      0.4846166261E+04      0.1087666442E-01      0.2572405554E+00
          0                 2           2           232   53     1       0.1700555152E+00     139  122    1      -0.5601917746E+02      0.4846284299E+03      0.4846166261E+04      0.1700555152E+00
          0                 3           2           232   53     1       0.1603806606E+00     139  122    1      -0.2801003358E+01      0.2423625040E+02      0.4846284299E+03      0.1603806606E+00
          0                 4           2           232   53     1       0.1509283263E+00     139  122    1      -0.1400224275E+00      0.1211778045E+01      0.2423625040E+02      0.1509283263E+00
          0                 5           2           232   53     1       0.1421179033E+00     457  456    1       0.9714467579E-02      0.6156906085E-01      0.1211778045E+01      0.1421179033E+00
          0                 6           2           232   53     1       0.1338289028E+00     457  456    1       0.9702071477E-02      0.1145688108E-01      0.6156906085E-01      0.1338289028E+00
          0                 7           2           232   53     1       0.1260313536E+00     457  456    1       0.9689694949E-02      0.1102132362E-01      0.1145688108E-01      0.1260313536E+00
          0                 8           2           232   53     1       0.1186954504E+00     457  456    1       0.9677334875E-02      0.1099247778E-01      0.1102132362E-01      0.1186954504E+00
          0                 9           2           232   53     1       0.1117929993E+00     457  456    1       0.9664990680E-02      0.1096622484E-01      0.1099247778E-01      0.1117929993E+00
          0                10           2           232   53     1       0.1052975852E+00     457  456    1       0.9652662244E-02      0.1094134079E-01      0.1096622484E-01      0.1052975852E+00
          0                11           2           232   53     1       0.9918449318E-01     457  456    1       0.9640349529E-02      0.1091766524E-01      0.1094134079E-01      0.9918449318E-01

    ------------------------------------------------
       NWT REQUIRED           11 OUTER ITERATIONS 
       AND A TOTAL OF         23 INNER ITERATIONS.
    ------------------------------------------------

 NO OUTPUT CONTROL FOR STRESS PERIOD   17   TIME STEP    4

 WELLS WITH REDUCED PUMPING FOR STRESS PERIOD    17 TIME STEP     4
   LAY   ROW   COL         APPL.Q          ACT.Q        GW-HEAD       CELL-BOT
     1    92    77  -0.728135E+03  -0.490825E+03  -0.780978E+02  -0.930000E+02


 SOLVING FOR HEAD 
                                                   Max.-Head-Change                        Max.-Flux-Residual
  Residual-Control   Outer-Iter.   Inner-Iter.     Column Row Layer    Max.-Head-Change    Column Row Layer    Max.-Flux-Residual            L2-New               L2-Old           Solver-Max-Delh
          0                 1           3            77   94     1      -0.2247791732E+00     139  122    1       0.5418819281E+03      0.4763515657E+04      0.1091766524E-01     -0.2247791732E+00
          0                 2           2           233   53     1       0.1523753288E+00     139  122    1      -0.5419345125E+02      0.4763480676E+03      0.4763515657E+04      0.1523753288E+00
          0                 3           2           233   53     1       0.1492837068E+00     139  122    1      -0.2709715546E+01      0.2381729177E+02      0.4763480676E+03      0.1492837068E+00
          0                 4           2           233   53     1       0.1447022517E+00     139  122    1      -0.1354589659E+00      0.1190678568E+01      0.2381729177E+02      0.1447022517E+00
          0                 5           2           233   53     1       0.1402037136E+00     457  456    1       0.9726551826E-02      0.6054090581E-01      0.1190678568E+01      0.1402037136E+00
          0                 6           2           233   53     1       0.1358561970E+00     457  456    1       0.9713948057E-02      0.1149344143E-01      0.6054090581E-01      0.1358561970E+00
          0                 7           2           233   53     1       0.1316568922E+00     457  456    1       0.9701364370E-02      0.1107006639E-01      0.1149344143E-01      0.1316568922E+00
          0                 8           2           233   53     1       0.1276002846E+00     457  456    1       0.9688797649E-02      0.1103853360E-01      0.1107006639E-01      0.1276002846E+00
          0                 9           2           233   53     1       0.1236808056E+00     457  456    1       0.9676247318E-02      0.1101007613E-01      0.1103853360E-01      0.1236808056E+00
          0                10           2           233   53     1       0.1198930598E+00     457  456    1       0.9663713259E-02      0.1098337569E-01      0.1101007613E-01      0.1198930598E+00
                                                   Max.-Head-Change                        Max.-Flux-Residual
  Residual-Control   Outer-Iter.   Inner-Iter.     Column Row Layer    Max.-Head-Change    Column Row Layer    Max.-Flux-Residual            L2-New               L2-Old           Solver-Max-Delh
          0                11           2           233   53     1       0.1162318667E+00     457  456    1       0.9651195429E-02      0.1095816662E-01      0.1098337569E-01      0.1162318667E+00
          0                12           2           233   53     1       0.1126922673E+00     457  456    1       0.9638693804E-02      0.1093423339E-01      0.1095816662E-01      0.1126922673E+00
          0                13           2           233   53     1       0.1092695225E+00     457  456    1       0.9626208362E-02      0.1091139703E-01      0.1093423339E-01      0.1092695225E+00
          0                14           2           233   53     1       0.1059591083E+00     457  456    1       0.9613739080E-02      0.1088950769E-01      0.1091139703E-01      0.1059591083E+00
          0                15           2           233   53     1       0.1027567090E+00     457  456    1       0.9601285938E-02      0.1086843930E-01      0.1088950769E-01      0.1027567090E+00
          0                16           2           233   53     1       0.9965820937E-01     457  456    1       0.9588848914E-02      0.1084808548E-01      0.1086843930E-01      0.9965820937E-01

    ------------------------------------------------
       NWT REQUIRED           16 OUTER ITERATIONS 
       AND A TOTAL OF         33 INNER ITERATIONS.
    ------------------------------------------------

 NO OUTPUT CONTROL FOR STRESS PERIOD   17   TIME STEP    5

 WELLS WITH REDUCED PUMPING FOR STRESS PERIOD    17 TIME STEP     5
   LAY   ROW   COL         APPL.Q          ACT.Q        GW-HEAD       CELL-BOT
     1    92    77  -0.728135E+03  -0.486662E+03  -0.781949E+02  -0.930000E+02


 SOLVING FOR HEAD 
                                                   Max.-Head-Change                        Max.-Flux-Residual
  Residual-Control   Outer-Iter.   Inner-Iter.     Column Row Layer    Max.-Head-Change    Column Row Layer    Max.-Flux-Residual            L2-New               L2-Old           Solver-Max-Delh
          0                 1           3            77   94     1      -0.2246353911E+00      77   94    1      -0.5408534427E+03      0.4702082046E+04      0.1084808548E-01     -0.2246353911E+00
          0                 2           2           233   53     1       0.1779505002E+00      77   94    1       0.5407864545E+02      0.4701948909E+03      0.4702082046E+04      0.1779505002E+00
          0                 3           2           233   53     1       0.1679824905E+00      77   94    1       0.2703886411E+01      0.2350993973E+02      0.4701948909E+03      0.1679824905E+00
          0                 4           2           233   53     1       0.1582032848E+00      77   94    1       0.1351673612E+00      0.1175321368E+01      0.2350993973E+02      0.1582032848E+00
          0                 5           2           233   53     1       0.1489955569E+00     457  456    1       0.9672154808E-02      0.5977015820E-01      0.1175321368E+01      0.1489955569E+00
          0                 6           2           233   53     1       0.1403402594E+00     457  456    1       0.9659429155E-02      0.1138604021E-01      0.5977015820E-01      0.1403402594E+00
          0                 7           2           233   53     1       0.1322029274E+00     457  456    1       0.9646723953E-02      0.1096991174E-01      0.1138604021E-01      0.1322029274E+00
          0                 8           2           233   53     1       0.1245507602E+00     457  456    1       0.9634036115E-02      0.1093919824E-01      0.1096991174E-01      0.1245507602E+00
          0                 9           2           233   53     1       0.1173531394E+00     457  456    1       0.9621365077E-02      0.1091131419E-01      0.1093919824E-01      0.1173531394E+00
          0                10           2           233   53     1       0.1105815903E+00     457  456    1       0.9608710717E-02      0.1088502941E-01      0.1091131419E-01      0.1105815903E+00
                                                   Max.-Head-Change                        Max.-Flux-Residual
  Residual-Control   Outer-Iter.   Inner-Iter.     Column Row Layer    Max.-Head-Change    Column Row Layer    Max.-Flux-Residual            L2-New               L2-Old           Solver-Max-Delh
          0                11           2           233   53     1       0.1042096036E+00     457  456    1       0.9596072993E-02      0.1086014105E-01      0.1088502941E-01      0.1042096036E+00
          0                12           2           233   53     1       0.9821248479E-01     457  456    1       0.9583451883E-02      0.1083648133E-01      0.1086014105E-01      0.9821248479E-01

    ------------------------------------------------
       NWT REQUIRED           12 OUTER ITERATIONS 
       AND A TOTAL OF         25 INNER ITERATIONS.
    ------------------------------------------------

 NO OUTPUT CONTROL FOR STRESS PERIOD   17   TIME STEP    6

 WELLS WITH REDUCED PUMPING FOR STRESS PERIOD    17 TIME STEP     6
   LAY   ROW   COL         APPL.Q          ACT.Q        GW-HEAD       CELL-BOT
     1    92    77  -0.728135E+03  -0.483444E+03  -0.782697E+02  -0.930000E+02


 SOLVING FOR HEAD 
                                                   Max.-Head-Change                        Max.-Flux-Residual
  Residual-Control   Outer-Iter.   Inner-Iter.     Column Row Layer    Max.-Head-Change    Column Row Layer    Max.-Flux-Residual            L2-New               L2-Old           Solver-Max-Delh
          0                 1           3            77   94     1      -0.2244917750E+00      77   94    1      -0.5405019910E+03      0.4652066895E+04      0.1083648133E-01     -0.2244917750E+00
          0                 2           2           233   53     1       0.1324696260E+00      77   94    1       0.5404350865E+02      0.4652019057E+03      0.4652066895E+04      0.1324696260E+00
          0                 3           2           233   53     1       0.1208515345E+00      77   94    1       0.2702129873E+01      0.2325998480E+02      0.4652019057E+03      0.1208515345E+00
          0                 4           2           233   53     1       0.1099221693E+00      77   94    1       0.1350795638E+00      0.1162818078E+01      0.2325998480E+02      0.1099221693E+00
          0                 5           2           233   53     1       0.9997746401E-01     457  456    1       0.9664226199E-02      0.5913493844E-01      0.1162818078E+01      0.9997746401E-01

    ------------------------------------------------
       NWT REQUIRED            5 OUTER ITERATIONS 
       AND A TOTAL OF         11 INNER ITERATIONS.
    ------------------------------------------------

 NO OUTPUT CONTROL FOR STRESS PERIOD   17   TIME STEP    7

 WELLS WITH REDUCED PUMPING FOR STRESS PERIOD    17 TIME STEP     7
   LAY   ROW   COL         APPL.Q          ACT.Q        GW-HEAD       CELL-BOT
     1    92    77  -0.728135E+03  -0.480932E+03  -0.783280E+02  -0.930000E+02


 SOLVING FOR HEAD 
                                                   Max.-Head-Change                        Max.-Flux-Residual
  Residual-Control   Outer-Iter.   Inner-Iter.     Column Row Layer    Max.-Head-Change    Column Row Layer    Max.-Flux-Residual            L2-New               L2-Old           Solver-Max-Delh
          0                 1           3            77   94     1      -0.2243483213E+00      77   94    1      -0.5401509446E+03      0.4609228225E+04      0.5913493844E-01     -0.2243483213E+00
          0                 2           2           233   53     1       0.1102620407E+00      77   94    1       0.5400841241E+02      0.4609092776E+03      0.4609228225E+04      0.1102620407E+00
          0                 3           2           233   53     1       0.9673046071E-01      77   94    1       0.2700375307E+01      0.2304536119E+02      0.4609092776E+03      0.9673046071E-01

    ------------------------------------------------
       NWT REQUIRED            3 OUTER ITERATIONS 
       AND A TOTAL OF          7 INNER ITERATIONS.
    ------------------------------------------------

 NO OUTPUT CONTROL FOR STRESS PERIOD   17   TIME STEP    8

 WELLS WITH REDUCED PUMPING FOR STRESS PERIOD    17 TIME STEP     8
   LAY   ROW   COL         APPL.Q          ACT.Q        GW-HEAD       CELL-BOT
     1    92    77  -0.728135E+03  -0.478950E+03  -0.783739E+02  -0.930000E+02


 SOLVING FOR HEAD 
                                                   Max.-Head-Change                        Max.-Flux-Residual
  Residual-Control   Outer-Iter.   Inner-Iter.     Column Row Layer    Max.-Head-Change    Column Row Layer    Max.-Flux-Residual            L2-New               L2-Old           Solver-Max-Delh
          0                 1           3            77   94     1      -0.2242049970E+00      77   94    1      -0.5398002219E+03      0.4571393265E+04      0.2304536119E+02     -0.2242049970E+00
          0                 2           2           233   53     1       0.9061746308E-01      77   94    1       0.5397334853E+02      0.4571269528E+03      0.4571393265E+04      0.9061746308E-01

    ------------------------------------------------
       NWT REQUIRED            2 OUTER ITERATIONS 
       AND A TOTAL OF          5 INNER ITERATIONS.
    ------------------------------------------------

 NO OUTPUT CONTROL FOR STRESS PERIOD   17   TIME STEP    9

 WELLS WITH REDUCED PUMPING FOR STRESS PERIOD    17 TIME STEP     9
   LAY   ROW   COL         APPL.Q          ACT.Q        GW-HEAD       CELL-BOT
     1    92    77  -0.728135E+03  -0.477355E+03  -0.784107E+02  -0.930000E+02


 SOLVING FOR HEAD 
                                                   Max.-Head-Change                        Max.-Flux-Residual
  Residual-Control   Outer-Iter.   Inner-Iter.     Column Row Layer    Max.-Head-Change    Column Row Layer    Max.-Flux-Residual            L2-New               L2-Old           Solver-Max-Delh
          0                 1           3            77   94     1      -0.2240611522E+00      77   94    1      -0.5394482319E+03      0.4537172258E+04      0.4571269528E+03     -0.2240611522E+00
          0                 2           2           233   53     1       0.7396542424E-01      77   94    1       0.5393815795E+02      0.4537036107E+03      0.4537172258E+04      0.7396542424E-01

    ------------------------------------------------
       NWT REQUIRED            2 OUTER ITERATIONS 
       AND A TOTAL OF          5 INNER ITERATIONS.
    ------------------------------------------------

 OUTPUT CONTROL FOR STRESS PERIOD   17   TIME STEP   10
    SAVE HEAD FOR ALL LAYERS

 WELLS WITH REDUCED PUMPING FOR STRESS PERIOD    17 TIME STEP    10
   LAY   ROW   COL         APPL.Q          ACT.Q        GW-HEAD       CELL-BOT
     1    92    77  -0.728135E+03  -0.476059E+03  -0.784406E+02  -0.930000E+02


 HEAD WILL BE SAVED ON UNIT   51 AT END OF TIME STEP   10, STRESS PERIOD   17
1
  VOLUMETRIC BUDGET FOR ENTIRE MODEL AT END OF TIME STEP   10, STRESS PERIOD  17
  ------------------------------------------------------------------------------

     CUMULATIVE VOLUMES      L**3       RATES FOR THIS TIME STEP      L**3/T
     ------------------                 ------------------------

           IN:                                      IN:
           ---                                      ---
             STORAGE =   240025264.0000               STORAGE =      232619.0156
       CONSTANT HEAD =    25060128.0000         CONSTANT HEAD =       50559.4648
               WELLS =           0.0000                 WELLS =           0.0000
              DRAINS =           0.0000                DRAINS =           0.0000
                  ET =           0.0000                    ET =           0.0000
            RECHARGE =    83036376.0000              RECHARGE =      102654.8125

            TOTAL IN =   348121760.0000              TOTAL IN =      385833.2812

          OUT:                                     OUT:
          ----                                     ----
             STORAGE =    89974472.0000               STORAGE =       35908.4336
       CONSTANT HEAD =           0.0000         CONSTANT HEAD =           0.0000
               WELLS =   171340144.0000                 WELLS =      198592.6094
              DRAINS =    57889404.0000                DRAINS =      109240.5312
                  ET =    28470698.0000                    ET =       41113.0195
            RECHARGE =       81860.0000              RECHARGE =           0.0000

           TOTAL OUT =   347756576.0000             TOTAL OUT =      384854.5938

            IN - OUT =      365184.0000              IN - OUT =         978.6875

 PERCENT DISCREPANCY =           0.10     PERCENT DISCREPANCY =           0.25






         TIME SUMMARY AT END OF TIME STEP   10 IN STRESS PERIOD   17
                    SECONDS     MINUTES      HOURS       DAYS        YEARS
                    -----------------------------------------------------------
   TIME STEP LENGTH 2.62656E+05  4377.6      72.960      3.0400     8.32307E-03
 STRESS PERIOD TIME 2.62656E+06  43776.      729.60      30.400     8.32307E-02
         TOTAL TIME 4.46516E+07 7.44193E+05  12403.      516.80      1.4149    
1
1
                            STRESS PERIOD NO.   18, LENGTH =   30.40000    
                            -----------------------------------------------

                              NUMBER OF TIME STEPS =    10

                               MULTIPLIER FOR DELT =     1.000

                            INITIAL TIME STEP SIZE =   3.040000    

 WELL NO.  LAYER   ROW   COL   STRESS RATE         
 --------------------------------------------------
      1      1     69    225      -1469.    
      2      1     71    224      -6048.    
      3      1     74    220      -6134.    
      4      1     73    220       0.000    
      5      1     71    223      -6221.    
      6      1     71    223      -7344.    
      7      1     72    223      -6394.    
      8      1     92    173      -6653.    
      9      1     94    174      -5875.    
     10      1     93    175       0.000    
     11      1    203    328      -5875.    
     12      1    438    460      -2971.    
     13      1    436    461      -2971.    
     14      1    410    454      -2971.    
     15      1    433    460      -2971.    
     16      1    431    462      -2971.    
     17      1    417    459      -2971.    
     18      1    418    458      -2971.    
     19      1    414    455      -2971.    
     20      1    443    464      -2971.    
     21      1    379    425      -2971.    
     22      1    362    405      -2971.    
     23      1    361    405      -2971.    
     24      1    362    406      -2971.    
     25      1    363    408      -2971.    
     26      1    364    410      -2971.    
     27      1    369    418      -2971.    
     28      1    367    417      -2971.    
     29      1    365    415      -2971.    
     30      1    402    447      -2971.    
     31      1    400    446      -2971.    
     32      1    392    444      -2971.    
     33      1    391    441      -2971.    
     34      1    403    448      -2971.    
     35      1    405    447      -2971.    
     36      1    362    410      -2971.    
     37      1    362    411      -2971.    
     38      1    363    412      -2971.    
     39      1    375    421      -2971.    
     40      1    383    430      -2971.    
     41      1    397    445      -2971.    
     42      1    360    403      -2971.    
     43      1    350    401      -2971.    
     44      1    346    393      -4079.    
     45      1    333    387      -4079.    
     46      1    328    384      -4079.    
     47      1    326    383      -4079.    
     48      1    323    378      -4079.    
     49      1    321    378      -4079.    
     50      1    322    376      -4079.    
     51      1    316    374      -4079.    
     52      1    311    371      -4079.    
     53      1    307    369      -4079.    
     54      1    305    368      -4079.    
     55      1    303    368      -4079.    
     56      1    300    369      -4079.    
     57      1    293    364      -4079.    
     58      1    292    362      -4079.    
     59      1    278    350      -4079.    
     60      1    274    351      -4079.    
     61      1    273    350      -4079.    
     62      1    271    350      -4079.    
     63      1    267    348      -4079.    
     64      1    263    348      -4079.    
     65      1    263    348      -4079.    
     66      1    248    347      -4079.    
     67      1    243    342      -4079.    
     68      1    242    339      -4079.    
     69      1    238    341      -4079.    
     70      1    233    340      -4079.    
     71      1    232    340      -4079.    
     72      1    229    341      -4079.    
     73      1    227    341      -4079.    
     74      1    219    342      -4079.    
     75      1    219    336      -4079.    
     76      1    199    329      -4079.    
     77      1    191    332      -5038.    
     78      1    190    332      -5038.    
     79      1    130    310      -5038.    
     80      1    123    305      -5038.    
     81      1    104    289      -5038.    
     82      1     96    287      -4290.    
     83      1     95    284      -4290.    
     84      1     95    280      -4290.    
     85      1     93    276      -4290.    
     86      1     94    275      -4290.    
     87      1     90    277      -4290.    
     88      1     90    273      -4290.    
     89      1     86    271      -4290.    
     90      1     85    270      -4290.    
     91      1     84    265      -4290.    
     92      1     85    265      -4290.    
     93      1     84    264      -4290.    
     94      1     79    263      -4290.    
     95      1     79    263      -4290.    
     96      1     76    262      -4290.    
     97      1     73    257      -4290.    
     98      1     74    255      -4290.    
     99      1     71    255      -4290.    
    100      1     66    253      -4290.    
    101      1     68    252      -4290.    
    102      1     69    250      -4290.    
    103      1     65    248      -4290.    
    104      1     68    248      -4290.    
    105      1     69    247      -4290.    
    106      1     73    247      -4290.    
    107      1     64    246      -4290.    
    108      1     69    245      -4290.    
    109      1     72    245      -4290.    
    110      1     69    241      -4290.    
    111      1     73    238      -4290.    
    112      1     70    238      -4290.    
    113      1     76    263      -4290.    
    114      1     66    232      -2310.    
    115      1     69    229      -2310.    
    116      1     71    228      -2310.    
    117      1     69    227      -2310.    
    118      1     72    219      -2310.    
    119      1     72    218      -2310.    
    120      1     72    218      -2310.    
    121      1     73    217      -2310.    
    122      1     77    219      -2310.    
    123      1     78    219      -2310.    
    124      1     83    213      -2310.    
    125      1     77    213      -2310.    
    126      1     81    211      -2310.    
    127      1     81    210      -2310.    
    128      1     81    210      -2310.    
    129      1     82    208      -2310.    
    130      1     80    205      -2310.    
    131      1     86    202      -2310.    
    132      1     84    200      -2310.    
    133      1     89    200      -2310.    
    134      1     89    199      -2310.    
    135      1     88    199      -2310.    
    136      1     86    199      -2310.    
    137      1     85    199      -2310.    
    138      1     82    197      -2310.    
    139      1     86    197      -2310.    
    140      1     88    198      -2310.    
    141      1     90    192      -2310.    
    142      1     89    191      -2310.    
    143      1     84    192      -2310.    
    144      1     91    189      -2310.    
    145      1     92    185      -2310.    
    146      1     87    183      -2310.    
    147      1     92    182      -2310.    
    148      1     90    182      -2310.    
    149      1     88    179      -2310.    
    150      1     89    176      -2310.    
    151      1     92    172      -2310.    
    152      1     93    164      -2310.    
    153      1     94    162      -2310.    
    154      1    103    156      -2310.    
    155      1    103    156      -2310.    
    156      1     96    154      -2310.    
    157      1     97    153      -2310.    
    158      1    122    139      -2310.    
    159      1     92     77      -2310.    
    160      1     94     77      -2310.    
    161      1     94     73      -2310.    
    162      1     97    152      -2310.    
    163      1    118    337      -666.7    
    164      1    133    319      -2678.    
    165      1    131    320      -3951.    
    166      1    133    321      -2956.    
    167      1    161    329      -2141.    
    168      1    178    330      -551.0    
    169      1    163    330      -1122.    
    170      1    131    320      -2473.    
    171      1    129    315      -3937.    
    172      1    162    329      -1959.    
    173      1    131    311      -826.1    
    174      1    221    340      -1994.    
    175      1    220    340      -1034.    
    176      1    221    340      -667.7    
    177      1    137    322      -2082.    
    178      1    137    321      -1407.    
    179      1    185    329      -2012.    
    180      1    183    329      -1473.    
    181      1    175    329      -585.3    
    182      1     79    243      -1490.    
    183      1     77    245      -2414.    
    184      1    199    329      -1617.    
    185      1    198    330      -2514.    
    186      1    140    328      -972.1    
    187      1    143    327      -863.6    
    188      1    139    327      -1331.    

    188 WELLS

 REUSING NON-PARAMETER DRAINS FROM LAST STRESS PERIOD

   1061 DRAINS

 REUSING SURF FROM LAST STRESS PERIOD

 REUSING EVTR FROM LAST STRESS PERIOD

 REUSING EXDP FROM LAST STRESS PERIOD



                           RECHARGE
 READING ON UNIT   19 WITH FORMAT: (510E15.6)          

 SOLVING FOR HEAD 
                                                   Max.-Head-Change                        Max.-Flux-Residual
  Residual-Control   Outer-Iter.   Inner-Iter.     Column Row Layer    Max.-Head-Change    Column Row Layer    Max.-Flux-Residual            L2-New               L2-Old           Solver-Max-Delh
          0                 1           3           263   79     1      -0.1757843712E+02     348  263    1      -0.6831416903E+04      0.3190270460E+05      0.4537036107E+03     -0.1757843712E+02
          0                 2           2           263   79     1       0.1358907227E+01     348  263    1       0.6258701438E+03      0.3121133730E+04      0.3190270460E+05      0.1358907227E+01
          0                 3           2           263   79     1       0.6656238856E-01     348  263    1       0.3109195139E+02      0.1566676180E+03      0.3121133730E+04      0.6656238856E-01

    ------------------------------------------------
       NWT REQUIRED            3 OUTER ITERATIONS 
       AND A TOTAL OF          7 INNER ITERATIONS.
    ------------------------------------------------

 NO OUTPUT CONTROL FOR STRESS PERIOD   18   TIME STEP    1

 WELLS WITH REDUCED PUMPING FOR STRESS PERIOD    18 TIME STEP     1
   LAY   ROW   COL         APPL.Q          ACT.Q        GW-HEAD       CELL-BOT
     1    92    77  -0.230952E+04  -0.990875E+03  -0.820920E+02  -0.930000E+02


 SOLVING FOR HEAD 
                                                   Max.-Head-Change                        Max.-Flux-Residual
  Residual-Control   Outer-Iter.   Inner-Iter.     Column Row Layer    Max.-Head-Change    Column Row Layer    Max.-Flux-Residual            L2-New               L2-Old           Solver-Max-Delh
          0                 1           3           263   79     1      -0.7009211740E+01     374  316    1      -0.2926470570E+04      0.1563475183E+05      0.1566676180E+03     -0.7009211740E+01
          0                 2           3           263   79     1       0.5678594381E+00     374  316    1       0.2923639821E+03      0.1555217573E+04      0.1563475183E+05      0.5678594381E+00
          0                 3           2           457  456     1       0.4262865341E-01     374  316    1       0.1461608209E+02      0.7768733512E+02      0.1555217573E+04      0.4262865341E-01

    ------------------------------------------------
       NWT REQUIRED            3 OUTER ITERATIONS 
       AND A TOTAL OF          8 INNER ITERATIONS.
    ------------------------------------------------

 NO OUTPUT CONTROL FOR STRESS PERIOD   18   TIME STEP    2

 WELLS WITH REDUCED PUMPING FOR STRESS PERIOD    18 TIME STEP     2
   LAY   ROW   COL         APPL.Q          ACT.Q        GW-HEAD       CELL-BOT
     1    92    77  -0.230952E+04  -0.745015E+03  -0.838556E+02  -0.930000E+02


 SOLVING FOR HEAD 
                                                   Max.-Head-Change                        Max.-Flux-Residual
  Residual-Control   Outer-Iter.   Inner-Iter.     Column Row Layer    Max.-Head-Change    Column Row Layer    Max.-Flux-Residual            L2-New               L2-Old           Solver-Max-Delh
          0                 1           3           263   79     1      -0.3140752316E+01     374  316    1      -0.2606204765E+04      0.1282775100E+05      0.7768733512E+02     -0.3140752316E+01
          0                 2           2           263   79     1       0.2618626640E+00     374  316    1       0.2603510240E+03      0.1281066168E+04      0.1282775100E+05      0.2618626640E+00
          0                 3           2           457  456     1       0.4307185546E-01     374  316    1       0.1301553999E+02      0.6405029280E+02      0.1281066168E+04      0.4307185546E-01

    ------------------------------------------------
       NWT REQUIRED            3 OUTER ITERATIONS 
       AND A TOTAL OF          7 INNER ITERATIONS.
    ------------------------------------------------

 NO OUTPUT CONTROL FOR STRESS PERIOD   18   TIME STEP    3

 WELLS WITH REDUCED PUMPING FOR STRESS PERIOD    18 TIME STEP     3
   LAY   ROW   COL         APPL.Q          ACT.Q        GW-HEAD       CELL-BOT
     1    92    77  -0.230952E+04  -0.629286E+03  -0.847284E+02  -0.930000E+02


 SOLVING FOR HEAD 
                                                   Max.-Head-Change                        Max.-Flux-Residual
  Residual-Control   Outer-Iter.   Inner-Iter.     Column Row Layer    Max.-Head-Change    Column Row Layer    Max.-Flux-Residual            L2-New               L2-Old           Solver-Max-Delh
          0                 1           3           263   79     1      -0.1629054112E+01     378  321    1      -0.2328718791E+04      0.1158227344E+05      0.6405029280E+02     -0.1629054112E+01
          0                 2           2           263   79     1       0.1379778713E+00     378  321    1       0.2326207310E+03      0.1165447023E+04      0.1158227344E+05      0.1379778713E+00
          0                 3           2           457  456     1       0.4351898765E-01     378  321    1       0.1162915872E+02      0.5826435117E+02      0.1165447023E+04      0.4351898765E-01

    ------------------------------------------------
       NWT REQUIRED            3 OUTER ITERATIONS 
       AND A TOTAL OF          7 INNER ITERATIONS.
    ------------------------------------------------

 NO OUTPUT CONTROL FOR STRESS PERIOD   18   TIME STEP    4

 WELLS WITH REDUCED PUMPING FOR STRESS PERIOD    18 TIME STEP     4
   LAY   ROW   COL         APPL.Q          ACT.Q        GW-HEAD       CELL-BOT
     1    92    77  -0.230952E+04  -0.573049E+03  -0.851681E+02  -0.930000E+02


 SOLVING FOR HEAD 
                                                   Max.-Head-Change                        Max.-Flux-Residual
  Residual-Control   Outer-Iter.   Inner-Iter.     Column Row Layer    Max.-Head-Change    Column Row Layer    Max.-Flux-Residual            L2-New               L2-Old           Solver-Max-Delh
          0                 1           3           264   78     1      -0.1045972025E+01     378  321    1      -0.2119831626E+04      0.1086098159E+05      0.5826435117E+02     -0.1045972025E+01
          0                 2           2           264   78     1       0.8904139449E-01     378  321    1       0.2117422765E+03      0.1090601881E+04      0.1086098159E+05      0.8904139449E-01

    ------------------------------------------------
       NWT REQUIRED            2 OUTER ITERATIONS 
       AND A TOTAL OF          5 INNER ITERATIONS.
    ------------------------------------------------

 NO OUTPUT CONTROL FOR STRESS PERIOD   18   TIME STEP    5

 WELLS WITH REDUCED PUMPING FOR STRESS PERIOD    18 TIME STEP     5
   LAY   ROW   COL         APPL.Q          ACT.Q        GW-HEAD       CELL-BOT
     1    92    77  -0.230952E+04  -0.544860E+03  -0.853934E+02  -0.930000E+02


 SOLVING FOR HEAD 
                                                   Max.-Head-Change                        Max.-Flux-Residual
  Residual-Control   Outer-Iter.   Inner-Iter.     Column Row Layer    Max.-Head-Change    Column Row Layer    Max.-Flux-Residual            L2-New               L2-Old           Solver-Max-Delh
          0                 1           3           264   78     1      -0.8839295454E+00      77   94    1      -0.2090557339E+04      0.1038075589E+05      0.5452440209E+02     -0.8839295454E+00
          0                 2           2           264   78     1       0.7525140997E-01      77   94    1       0.2089562952E+03      0.1037978297E+04      0.1038075589E+05      0.7525140997E-01

    ------------------------------------------------
       NWT REQUIRED            2 OUTER ITERATIONS 
       AND A TOTAL OF          5 INNER ITERATIONS.
    ------------------------------------------------

 NO OUTPUT CONTROL FOR STRESS PERIOD   18   TIME STEP    6

 WELLS WITH REDUCED PUMPING FOR STRESS PERIOD    18 TIME STEP     6
   LAY   ROW   COL         APPL.Q          ACT.Q        GW-HEAD       CELL-BOT
     1    92    77  -0.230952E+04  -0.530590E+03  -0.855088E+02  -0.930000E+02


 SOLVING FOR HEAD 
                                                   Max.-Head-Change                        Max.-Flux-Residual
  Residual-Control   Outer-Iter.   Inner-Iter.     Column Row Layer    Max.-Head-Change    Column Row Layer    Max.-Flux-Residual            L2-New               L2-Old           Solver-Max-Delh
          0                 1           3            77   94     1      -0.8677511812E+00      77   94    1      -0.2088934977E+04      0.1003668942E+05      0.5218277444E+02     -0.8677511812E+00
          0                 2           2           302  100     1       0.8908677014E-01      77   94    1       0.2087942036E+03      0.1013447616E+04      0.1003668942E+05      0.8908677014E-01

    ------------------------------------------------
       NWT REQUIRED            2 OUTER ITERATIONS 
       AND A TOTAL OF          5 INNER ITERATIONS.
    ------------------------------------------------

 NO OUTPUT CONTROL FOR STRESS PERIOD   18   TIME STEP    7

 WELLS WITH REDUCED PUMPING FOR STRESS PERIOD    18 TIME STEP     7
   LAY   ROW   COL         APPL.Q          ACT.Q        GW-HEAD       CELL-BOT
     1    92    77  -0.230952E+04  -0.523257E+03  -0.855684E+02  -0.930000E+02


 SOLVING FOR HEAD 
                                                   Max.-Head-Change                        Max.-Flux-Residual
  Residual-Control   Outer-Iter.   Inner-Iter.     Column Row Layer    Max.-Head-Change    Column Row Layer    Max.-Flux-Residual            L2-New               L2-Old           Solver-Max-Delh
          0                 1           3            77   94     1      -0.8671125747E+00      77   94    1      -0.2087314624E+04      0.9776106898E+04      0.5066954919E+02     -0.8671125747E+00
          0                 2           2           302  100     1       0.1091288036E+00      77   94    1       0.2086323125E+03      0.9787875992E+03      0.9776106898E+04      0.1091288036E+00
          0                 3           2           302  100     1       0.1079250063E+00      77   94    1       0.1043087949E+02      0.4893984944E+02      0.9787875992E+03      0.1079250063E+00
          0                 4           2           302  100     1       0.1067359314E+00      77   94    1       0.5214379590E+00      0.2446529672E+01      0.4893984944E+02      0.1067359314E+00
          0                 5           2           302  100     1       0.1055625405E+00      77   94    1       0.2606147164E-01      0.1228943485E+00      0.2446529672E+01      0.1055625405E+00
          0                 6           2           302  100     1       0.1044026652E+00     457  456    1       0.1086868789E-01      0.1371620273E-01      0.1228943485E+00      0.1044026652E+00
          0                 7           2           302  100     1       0.1032558628E+00     457  456    1       0.1085161110E-01      0.1225753506E-01      0.1371620273E-01      0.1032558628E+00
          0                 8           2           302  100     1       0.1021219579E+00     457  456    1       0.1083456202E-01      0.1223094286E-01      0.1225753506E-01      0.1021219579E+00
          0                 9           2           302  100     1       0.1010007971E+00     457  456    1       0.1081753992E-01      0.1220962665E-01      0.1223094286E-01      0.1010007971E+00
          0                10           2           302  100     1       0.9989222916E-01     457  456    1       0.1080054460E-01      0.1218895314E-01      0.1220962665E-01      0.9989222916E-01

    ------------------------------------------------
       NWT REQUIRED           10 OUTER ITERATIONS 
       AND A TOTAL OF         21 INNER ITERATIONS.
    ------------------------------------------------

 NO OUTPUT CONTROL FOR STRESS PERIOD   18   TIME STEP    8

 WELLS WITH REDUCED PUMPING FOR STRESS PERIOD    18 TIME STEP     8
   LAY   ROW   COL         APPL.Q          ACT.Q        GW-HEAD       CELL-BOT
     1    92    77  -0.230952E+04  -0.519442E+03  -0.855996E+02  -0.930000E+02


 SOLVING FOR HEAD 
                                                   Max.-Head-Change                        Max.-Flux-Residual
  Residual-Control   Outer-Iter.   Inner-Iter.     Column Row Layer    Max.-Head-Change    Column Row Layer    Max.-Flux-Residual            L2-New               L2-Old           Solver-Max-Delh
          0                 1           3            77   94     1      -0.8664778959E+00      77   94    1      -0.2085704322E+04      0.9573187326E+04      0.1218895314E-01     -0.8664778959E+00
          0                 2           2           302  100     1       0.1203404592E+00      77   94    1       0.2084714258E+03      0.9578941483E+03      0.9573187326E+04      0.1203404592E+00
          0                 3           2           302  100     1       0.1187232279E+00      77   94    1       0.1042283596E+02      0.4789299332E+02      0.9578941483E+03      0.1187232279E+00
          0                 4           2           302  100     1       0.1171147940E+00      77   94    1       0.5210358525E+00      0.2394198991E+01      0.4789299332E+02      0.1171147940E+00
          0                 5           2           302  100     1       0.1155293229E+00      77   94    1       0.2604137364E-01      0.1202912820E+00      0.2394198991E+01      0.1155293229E+00
          0                 6           2           302  100     1       0.1139658674E+00     457  456    1       0.1085940264E-01      0.1365606176E-01      0.1202912820E+00      0.1139658674E+00
          0                 7           2           302  100     1       0.1124239932E+00     457  456    1       0.1084208273E-01      0.1225743446E-01      0.1365606176E-01      0.1124239932E+00
          0                 8           2           302  100     1       0.1109033910E+00     457  456    1       0.1082479128E-01      0.1223159152E-01      0.1225743446E-01      0.1109033910E+00
          0                 9           2           302  100     1       0.1094037563E+00     457  456    1       0.1080752757E-01      0.1220998715E-01      0.1223159152E-01      0.1094037563E+00
          0                10           2           302  100     1       0.1079247871E+00     457  456    1       0.1079029142E-01      0.1218868360E-01      0.1220998715E-01      0.1079247871E+00
                                                   Max.-Head-Change                        Max.-Flux-Residual
  Residual-Control   Outer-Iter.   Inner-Iter.     Column Row Layer    Max.-Head-Change    Column Row Layer    Max.-Flux-Residual            L2-New               L2-Old           Solver-Max-Delh
          0                11           2           302  100     1       0.1064661857E+00     457  456    1       0.1077308276E-01      0.1216753934E-01      0.1218868360E-01      0.1064661857E+00
          0                12           2           302  100     1       0.1050276594E+00     457  456    1       0.1075590153E-01      0.1214650137E-01      0.1216753934E-01      0.1050276594E+00
          0                13           2           302  100     1       0.1036089197E+00     457  456    1       0.1073874769E-01      0.1212554839E-01      0.1214650137E-01      0.1036089197E+00
          0                14           2           302  100     1       0.1022096829E+00     457  456    1       0.1072162120E-01      0.1210467147E-01      0.1212554839E-01      0.1022096829E+00
          0                15           2           302  100     1       0.1008296696E+00     457  456    1       0.1070452200E-01      0.1208386654E-01      0.1210467147E-01      0.1008296696E+00
          0                16           2           302  100     1       0.9946860505E-01     457  456    1       0.1068745005E-01      0.1206313141E-01      0.1208386654E-01      0.9946860505E-01

    ------------------------------------------------
       NWT REQUIRED           16 OUTER ITERATIONS 
       AND A TOTAL OF         33 INNER ITERATIONS.
    ------------------------------------------------

 NO OUTPUT CONTROL FOR STRESS PERIOD   18   TIME STEP    9

 WELLS WITH REDUCED PUMPING FOR STRESS PERIOD    18 TIME STEP     9
   LAY   ROW   COL         APPL.Q          ACT.Q        GW-HEAD       CELL-BOT
     1    92    77  -0.230952E+04  -0.517388E+03  -0.856164E+02  -0.930000E+02


 SOLVING FOR HEAD 
                                                   Max.-Head-Change                        Max.-Flux-Residual
  Residual-Control   Outer-Iter.   Inner-Iter.     Column Row Layer    Max.-Head-Change    Column Row Layer    Max.-Flux-Residual            L2-New               L2-Old           Solver-Max-Delh
          0                 1           3            77   94     1      -0.8658439608E+00      77   94    1      -0.2084095990E+04      0.9409491216E+04      0.1206313141E-01     -0.8658439608E+00
          0                 2           2           302  100     1       0.1182855437E+00      77   94    1       0.2083107359E+03      0.9412888670E+03      0.9409491216E+04      0.1182855437E+00
          0                 3           2           302  100     1       0.1163568893E+00      77   94    1       0.1041480240E+02      0.4706290667E+02      0.9412888670E+03      0.1163568893E+00
          0                 4           2           302  100     1       0.1144335652E+00      77   94    1       0.5206342506E+00      0.2352703421E+01      0.4706290667E+02      0.1144335652E+00
          0                 5           2           302  100     1       0.1125418947E+00      77   94    1       0.2602130127E-01      0.1182148811E+00      0.2352703421E+01      0.1125418947E+00
          0                 6           2           302  100     1       0.1106819329E+00     457  456    1       0.1074482511E-01      0.1349294822E-01      0.1182148811E+00      0.1106819329E+00
          0                 7           2           302  100     1       0.1088531382E+00     457  456    1       0.1072742752E-01      0.1212590814E-01      0.1349294822E-01      0.1088531382E+00
          0                 8           2           302  100     1       0.1070549872E+00     457  456    1       0.1071005893E-01      0.1209971670E-01      0.1212590814E-01      0.1070549872E+00
          0                 9           2           302  100     1       0.1052869538E+00     457  456    1       0.1069271861E-01      0.1207768217E-01      0.1209971670E-01      0.1052869538E+00
          0                10           2           302  100     1       0.1035485180E+00     457  456    1       0.1067540640E-01      0.1205596196E-01      0.1207768217E-01      0.1035485180E+00
                                                   Max.-Head-Change                        Max.-Flux-Residual
  Residual-Control   Outer-Iter.   Inner-Iter.     Column Row Layer    Max.-Head-Change    Column Row Layer    Max.-Flux-Residual            L2-New               L2-Old           Solver-Max-Delh
          0                11           2           302  100     1       0.1018391685E+00     457  456    1       0.1065812221E-01      0.1203441849E-01      0.1205596196E-01      0.1018391685E+00
          0                12           2           302  100     1       0.1001584039E+00     457  456    1       0.1064086600E-01      0.1201300011E-01      0.1203441849E-01      0.1001584039E+00
          0                13           2           302  100     1       0.9850573149E-01     457  456    1       0.1062363772E-01      0.1199168564E-01      0.1201300011E-01      0.9850573149E-01

    ------------------------------------------------
       NWT REQUIRED           13 OUTER ITERATIONS 
       AND A TOTAL OF         27 INNER ITERATIONS.
    ------------------------------------------------

 OUTPUT CONTROL FOR STRESS PERIOD   18   TIME STEP   10
    SAVE HEAD FOR ALL LAYERS

 WELLS WITH REDUCED PUMPING FOR STRESS PERIOD    18 TIME STEP    10
   LAY   ROW   COL         APPL.Q          ACT.Q        GW-HEAD       CELL-BOT
     1    92    77  -0.230952E+04  -0.516235E+03  -0.856258E+02  -0.930000E+02


 HEAD WILL BE SAVED ON UNIT   51 AT END OF TIME STEP   10, STRESS PERIOD   18
1
  VOLUMETRIC BUDGET FOR ENTIRE MODEL AT END OF TIME STEP   10, STRESS PERIOD  18
  ------------------------------------------------------------------------------

     CUMULATIVE VOLUMES      L**3       RATES FOR THIS TIME STEP      L**3/T
     ------------------                 ------------------------

           IN:                                      IN:
           ---                                      ---
             STORAGE =   255253712.0000               STORAGE =      490404.2812
       CONSTANT HEAD =    26599224.0000         CONSTANT HEAD =       50682.7578
               WELLS =           0.0000                 WELLS =           0.0000
              DRAINS =           0.0000                DRAINS =           0.0000
                  ET =           0.0000                    ET =           0.0000
            RECHARGE =    87475416.0000              RECHARGE =      146021.4688

            TOTAL IN =   369328352.0000              TOTAL IN =      687108.5000

          OUT:                                     OUT:
          ----                                     ----
             STORAGE =    90803168.0000               STORAGE =       23919.5918
       CONSTANT HEAD =           0.0000         CONSTANT HEAD =           0.0000
               WELLS =   187381504.0000                 WELLS =      527583.6250
              DRAINS =    61007848.0000                DRAINS =       97839.8828
                  ET =    29665666.0000                    ET =       37765.3594
            RECHARGE =       81860.0000              RECHARGE =           0.0000

           TOTAL OUT =   368940032.0000             TOTAL OUT =      687108.4375

            IN - OUT =      388320.0000              IN - OUT =       6.2500E-02

 PERCENT DISCREPANCY =           0.11     PERCENT DISCREPANCY =           0.00






         TIME SUMMARY AT END OF TIME STEP   10 IN STRESS PERIOD   18
                    SECONDS     MINUTES      HOURS       DAYS        YEARS
                    -----------------------------------------------------------
   TIME STEP LENGTH 2.62656E+05  4377.6      72.960      3.0400     8.32307E-03
 STRESS PERIOD TIME 2.62656E+06  43776.      729.60      30.400     8.32307E-02
         TOTAL TIME 4.72781E+07 7.87968E+05  13133.      547.20      1.4982    
1
1
                            STRESS PERIOD NO.   19, LENGTH =   30.40000    
                            -----------------------------------------------

                              NUMBER OF TIME STEPS =    10

                               MULTIPLIER FOR DELT =     1.000

                            INITIAL TIME STEP SIZE =   3.040000    

 WELL NO.  LAYER   ROW   COL   STRESS RATE         
 --------------------------------------------------
      1      1     69    225      -1555.    
      2      1     71    224      -6048.    
      3      1     74    220      -6134.    
      4      1     73    220       0.000    
      5      1     71    223      -6221.    
      6      1     71    223      -7344.    
      7      1     72    223      -6394.    
      8      1     92    173      -6653.    
      9      1     94    174      -5875.    
     10      1     93    175       0.000    
     11      1    203    328      -5875.    
     12      1    438    460      -2585.    
     13      1    436    461      -2585.    
     14      1    410    454      -2585.    
     15      1    433    460      -2585.    
     16      1    431    462      -2585.    
     17      1    417    459      -2585.    
     18      1    418    458      -2585.    
     19      1    414    455      -2585.    
     20      1    443    464      -2585.    
     21      1    379    425      -2585.    
     22      1    362    405      -2585.    
     23      1    361    405      -2585.    
     24      1    362    406      -2585.    
     25      1    363    408      -2585.    
     26      1    364    410      -2585.    
     27      1    369    418      -2585.    
     28      1    367    417      -2585.    
     29      1    365    415      -2585.    
     30      1    402    447      -2585.    
     31      1    400    446      -2585.    
     32      1    392    444      -2585.    
     33      1    391    441      -2585.    
     34      1    403    448      -2585.    
     35      1    405    447      -2585.    
     36      1    362    410      -2585.    
     37      1    362    411      -2585.    
     38      1    363    412      -2585.    
     39      1    375    421      -2585.    
     40      1    383    430      -2585.    
     41      1    397    445      -2585.    
     42      1    360    403      -2585.    
     43      1    350    401      -2585.    
     44      1    346    393      -3788.    
     45      1    333    387      -3788.    
     46      1    328    384      -3788.    
     47      1    326    383      -3788.    
     48      1    323    378      -3788.    
     49      1    321    378      -3788.    
     50      1    322    376      -3788.    
     51      1    316    374      -3788.    
     52      1    311    371      -3788.    
     53      1    307    369      -3788.    
     54      1    305    368      -3788.    
     55      1    303    368      -3788.    
     56      1    300    369      -3788.    
     57      1    293    364      -3788.    
     58      1    292    362      -3788.    
     59      1    278    350      -3788.    
     60      1    274    351      -3788.    
     61      1    273    350      -3788.    
     62      1    271    350      -3788.    
     63      1    267    348      -3788.    
     64      1    263    348      -3788.    
     65      1    263    348      -3788.    
     66      1    248    347      -3788.    
     67      1    243    342      -3788.    
     68      1    242    339      -3788.    
     69      1    238    341      -3788.    
     70      1    233    340      -3788.    
     71      1    232    340      -3788.    
     72      1    229    341      -3788.    
     73      1    227    341      -3788.    
     74      1    219    342      -3788.    
     75      1    219    336      -3788.    
     76      1    199    329      -3788.    
     77      1    191    332      -4532.    
     78      1    190    332      -4532.    
     79      1    130    310      -4532.    
     80      1    123    305      -4532.    
     81      1    104    289      -4532.    
     82      1     96    287      -3788.    
     83      1     95    284      -3788.    
     84      1     95    280      -3788.    
     85      1     93    276      -3788.    
     86      1     94    275      -3788.    
     87      1     90    277      -3788.    
     88      1     90    273      -3788.    
     89      1     86    271      -3788.    
     90      1     85    270      -3788.    
     91      1     84    265      -3788.    
     92      1     85    265      -3788.    
     93      1     84    264      -3788.    
     94      1     79    263      -3788.    
     95      1     79    263      -3788.    
     96      1     76    262      -3788.    
     97      1     73    257      -3788.    
     98      1     74    255      -3788.    
     99      1     71    255      -3788.    
    100      1     66    253      -3788.    
    101      1     68    252      -3788.    
    102      1     69    250      -3788.    
    103      1     65    248      -3788.    
    104      1     68    248      -3788.    
    105      1     69    247      -3788.    
    106      1     73    247      -3788.    
    107      1     64    246      -3788.    
    108      1     69    245      -3788.    
    109      1     72    245      -3788.    
    110      1     69    241      -3788.    
    111      1     73    238      -3788.    
    112      1     70    238      -3788.    
    113      1     76    263      -3788.    
    114      1     66    232      -2343.    
    115      1     69    229      -2343.    
    116      1     71    228      -2343.    
    117      1     69    227      -2343.    
    118      1     72    219      -2343.    
    119      1     72    218      -2343.    
    120      1     72    218      -2343.    
    121      1     73    217      -2343.    
    122      1     77    219      -2343.    
    123      1     78    219      -2343.    
    124      1     83    213      -2343.    
    125      1     77    213      -2343.    
    126      1     81    211      -2343.    
    127      1     81    210      -2343.    
    128      1     81    210      -2343.    
    129      1     82    208      -2343.    
    130      1     80    205      -2343.    
    131      1     86    202      -2343.    
    132      1     84    200      -2343.    
    133      1     89    200      -2343.    
    134      1     89    199      -2343.    
    135      1     88    199      -2343.    
    136      1     86    199      -2343.    
    137      1     85    199      -2343.    
    138      1     82    197      -2343.    
    139      1     86    197      -2343.    
    140      1     88    198      -2343.    
    141      1     90    192      -2343.    
    142      1     89    191      -2343.    
    143      1     84    192      -2343.    
    144      1     91    189      -2343.    
    145      1     92    185      -2343.    
    146      1     87    183      -2343.    
    147      1     92    182      -2343.    
    148      1     90    182      -2343.    
    149      1     88    179      -2343.    
    150      1     89    176      -2343.    
    151      1     92    172      -2343.    
    152      1     93    164      -2343.    
    153      1     94    162      -2343.    
    154      1    103    156      -2343.    
    155      1    103    156      -2343.    
    156      1     96    154      -2343.    
    157      1     97    153      -2343.    
    158      1    122    139      -2343.    
    159      1     92     77      -2343.    
    160      1     94     77      -2343.    
    161      1     94     73      -2343.    
    162      1     97    152      -2343.    
    163      1    118    337      -666.7    
    164      1    133    319      -2678.    
    165      1    131    320      -3951.    
    166      1    133    321      -2956.    
    167      1    161    329      -2141.    
    168      1    178    330      -551.0    
    169      1    163    330      -1122.    
    170      1    131    320      -2473.    
    171      1    129    315      -3937.    
    172      1    162    329      -1959.    
    173      1    131    311      -826.1    
    174      1    221    340      -1994.    
    175      1    220    340      -1034.    
    176      1    221    340      -667.7    
    177      1    137    322      -2082.    
    178      1    137    321      -1407.    
    179      1    185    329      -2012.    
    180      1    183    329      -1473.    
    181      1    175    329      -585.3    
    182      1     79    243      -1490.    
    183      1     77    245      -2414.    
    184      1    199    329      -1617.    
    185      1    198    330      -2514.    
    186      1    140    328      -972.1    
    187      1    143    327      -863.6    
    188      1    139    327      -1331.    

    188 WELLS

 REUSING NON-PARAMETER DRAINS FROM LAST STRESS PERIOD

   1061 DRAINS

 REUSING SURF FROM LAST STRESS PERIOD

 REUSING EVTR FROM LAST STRESS PERIOD

 REUSING EXDP FROM LAST STRESS PERIOD



                           RECHARGE
 READING ON UNIT   19 WITH FORMAT: (510E15.6)          

 SOLVING FOR HEAD 
                                                   Max.-Head-Change                        Max.-Flux-Residual
  Residual-Control   Outer-Iter.   Inner-Iter.     Column Row Layer    Max.-Head-Change    Column Row Layer    Max.-Flux-Residual            L2-New               L2-Old           Solver-Max-Delh
          0                 1           3           263   79     1       0.2552433252E+01      77   94    1      -0.2115889130E+04      0.1032356794E+05      0.1199168564E-01      0.2552433252E+01
          0                 2           2           263   79     1      -0.2213192939E+00      77   94    1       0.2114870094E+03      0.1032364382E+04      0.1032356794E+05     -0.2213192939E+00
          0                 3           2           302  100     1       0.1130560848E+00      77   94    1       0.1057359313E+02      0.5161840557E+02      0.1032364382E+04      0.1130560848E+00
          0                 4           2           302  100     1       0.1107923250E+00      77   94    1       0.5285721296E+00      0.2580416081E+01      0.5161840557E+02      0.1107923250E+00
          0                 5           2           302  100     1       0.1085731270E+00      77   94    1       0.2641803564E-01      0.1295343959E+00      0.2580416081E+01      0.1085731270E+00
          0                 6           2           302  100     1       0.1063987631E+00     457  456    1       0.1067970492E-01      0.1368217150E-01      0.1295343959E+00      0.1063987631E+00
          0                 7           2           302  100     1       0.1042683805E+00     457  456    1       0.1066214918E-01      0.1204884033E-01      0.1368217150E-01      0.1042683805E+00
          0                 8           2           302  100     1       0.1021810918E+00     457  456    1       0.1064462311E-01      0.1202134945E-01      0.1204884033E-01      0.1021810918E+00
          0                 9           2           302  100     1       0.1001360096E+00     457  456    1       0.1062712601E-01      0.1199880921E-01      0.1202134945E-01      0.1001360096E+00
          0                10           2           302  100     1       0.9813226138E-01     457  456    1       0.1060965770E-01      0.1197661691E-01      0.1199880921E-01      0.9813226138E-01

    ------------------------------------------------
       NWT REQUIRED           10 OUTER ITERATIONS 
       AND A TOTAL OF         21 INNER ITERATIONS.
    ------------------------------------------------

 NO OUTPUT CONTROL FOR STRESS PERIOD   19   TIME STEP    1

 WELLS WITH REDUCED PUMPING FOR STRESS PERIOD    19 TIME STEP     1
   LAY   ROW   COL         APPL.Q          ACT.Q        GW-HEAD       CELL-BOT
     1    92    77  -0.234339E+04  -0.519727E+03  -0.856588E+02  -0.930000E+02


 SOLVING FOR HEAD 
                                                   Max.-Head-Change                        Max.-Flux-Residual
  Residual-Control   Outer-Iter.   Inner-Iter.     Column Row Layer    Max.-Head-Change    Column Row Layer    Max.-Flux-Residual            L2-New               L2-Old           Solver-Max-Delh
          0                 1           3            77   94     1      -0.8784438805E+00      77   94    1      -0.2114257418E+04      0.9433307292E+04      0.1197661691E-01     -0.8784438805E+00
          0                 2           2           302  100     1       0.1129741699E+00      77   94    1       0.2113239822E+03      0.9429646472E+03      0.9433307292E+04      0.1129741699E+00
          0                 3           2           302  100     1       0.1102813294E+00      77   94    1       0.1056544919E+02      0.4714579495E+02      0.9429646472E+03      0.1102813294E+00
          0                 4           2           302  100     1       0.1076271703E+00      77   94    1       0.5281653321E+00      0.2356844165E+01      0.4714579495E+02      0.1076271703E+00
          0                 5           2           302  100     1       0.1050365649E+00      77   94    1       0.2639771968E-01      0.1184107814E+00      0.2356844165E+01      0.1050365649E+00
          0                 6           2           302  100     1       0.1025087136E+00     457  456    1       0.1066454015E-01      0.1340904402E-01      0.1184107814E+00      0.1025087136E+00
          0                 7           2           302  100     1       0.1000421575E+00     457  456    1       0.1064674147E-01      0.1202635360E-01      0.1340904402E-01      0.1000421575E+00
          0                 8           2           302  100     1       0.9763540854E-01     457  456    1       0.1062897331E-01      0.1199894761E-01      0.1202635360E-01      0.9763540854E-01

    ------------------------------------------------
       NWT REQUIRED            8 OUTER ITERATIONS 
       AND A TOTAL OF         17 INNER ITERATIONS.
    ------------------------------------------------

 NO OUTPUT CONTROL FOR STRESS PERIOD   19   TIME STEP    2

 WELLS WITH REDUCED PUMPING FOR STRESS PERIOD    19 TIME STEP     2
   LAY   ROW   COL         APPL.Q          ACT.Q        GW-HEAD       CELL-BOT
     1    92    77  -0.234339E+04  -0.517552E+03  -0.856764E+02  -0.930000E+02


 SOLVING FOR HEAD 
                                                   Max.-Head-Change                        Max.-Flux-Residual
  Residual-Control   Outer-Iter.   Inner-Iter.     Column Row Layer    Max.-Head-Change    Column Row Layer    Max.-Flux-Residual            L2-New               L2-Old           Solver-Max-Delh
          0                 1           3            77   94     1      -0.8778019406E+00      77   94    1      -0.2112627713E+04      0.9243759300E+04      0.1199894761E-01     -0.8778019406E+00
          0                 2           2           302  100     1       0.1104028988E+00      77   94    1       0.2111611577E+03      0.9244310119E+03      0.9243759300E+04      0.1104028988E+00
          0                 3           2           302  100     1       0.1072697629E+00      77   94    1       0.1055731281E+02      0.4621997803E+02      0.9244310119E+03      0.1072697629E+00
          0                 4           2           302  100     1       0.1041938413E+00      77   94    1       0.5277587850E+00      0.2310565919E+01      0.4621997803E+02      0.1041938413E+00
          0                 5           2           302  100     1       0.1012054164E+00      77   94    1       0.2637740983E-01      0.1161118895E+00      0.2310565919E+01      0.1012054164E+00
          0                 6           2           302  100     1       0.9830309603E-01     457  456    1       0.1068272611E-01      0.1337294105E-01      0.1161118895E+00      0.9830309603E-01

    ------------------------------------------------
       NWT REQUIRED            6 OUTER ITERATIONS 
       AND A TOTAL OF         13 INNER ITERATIONS.
    ------------------------------------------------

 NO OUTPUT CONTROL FOR STRESS PERIOD   19   TIME STEP    3

 WELLS WITH REDUCED PUMPING FOR STRESS PERIOD    19 TIME STEP     3
   LAY   ROW   COL         APPL.Q          ACT.Q        GW-HEAD       CELL-BOT
     1    92    77  -0.234339E+04  -0.516346E+03  -0.856862E+02  -0.930000E+02


 SOLVING FOR HEAD 
                                                   Max.-Head-Change                        Max.-Flux-Residual
  Residual-Control   Outer-Iter.   Inner-Iter.     Column Row Layer    Max.-Head-Change    Column Row Layer    Max.-Flux-Residual            L2-New               L2-Old           Solver-Max-Delh
          0                 1           3            77   94     1      -0.8771607584E+00      77   94    1      -0.2111000015E+04      0.9127827074E+04      0.1337294105E-01     -0.8771607584E+00
          0                 2           2           302  100     1       0.1090594530E+00      77   94    1       0.2109985344E+03      0.9126110895E+03      0.9127827074E+04      0.1090594530E+00
          0                 3           2           302  100     1       0.1054041320E+00      77   94    1       0.1054918487E+02      0.4562931452E+02      0.9126110895E+03      0.1054041320E+00
          0                 4           2           302  100     1       0.1018329627E+00      77   94    1       0.5273525787E+00      0.2281040136E+01      0.4562931452E+02      0.1018329627E+00
          0                 5           2           302  100     1       0.9838176625E-01      77   94    1       0.2635711299E-01      0.1146502812E+00      0.2281040136E+01      0.9838176625E-01

    ------------------------------------------------
       NWT REQUIRED            5 OUTER ITERATIONS 
       AND A TOTAL OF         11 INNER ITERATIONS.
    ------------------------------------------------

 NO OUTPUT CONTROL FOR STRESS PERIOD   19   TIME STEP    4

 WELLS WITH REDUCED PUMPING FOR STRESS PERIOD    19 TIME STEP     4
   LAY   ROW   COL         APPL.Q          ACT.Q        GW-HEAD       CELL-BOT
     1    92    77  -0.234339E+04  -0.515635E+03  -0.856920E+02  -0.930000E+02


 SOLVING FOR HEAD 
                                                   Max.-Head-Change                        Max.-Flux-Residual
  Residual-Control   Outer-Iter.   Inner-Iter.     Column Row Layer    Max.-Head-Change    Column Row Layer    Max.-Flux-Residual            L2-New               L2-Old           Solver-Max-Delh
          0                 1           3            77   94     1      -0.8765203340E+00      77   94    1      -0.2109374323E+04      0.9039736997E+04      0.1146502812E+00     -0.8765203340E+00
          0                 2           2           302  100     1       0.1070045050E+00      77   94    1       0.2108361116E+03      0.9038254050E+03      0.9039736997E+04      0.1070045050E+00
          0                 3           2           302  100     1       0.1028012296E+00      77   94    1       0.1054106591E+02      0.4519018219E+02      0.9038254050E+03      0.1028012296E+00
          0                 4           2           302  100     1       0.9871871570E-01      77   94    1       0.5269467689E+00      0.2259088971E+01      0.4519018219E+02      0.9871871570E-01

    ------------------------------------------------
       NWT REQUIRED            4 OUTER ITERATIONS 
       AND A TOTAL OF          9 INNER ITERATIONS.
    ------------------------------------------------

 NO OUTPUT CONTROL FOR STRESS PERIOD   19   TIME STEP    5

 WELLS WITH REDUCED PUMPING FOR STRESS PERIOD    19 TIME STEP     5
   LAY   ROW   COL         APPL.Q          ACT.Q        GW-HEAD       CELL-BOT
     1    92    77  -0.234339E+04  -0.515176E+03  -0.856957E+02  -0.930000E+02


 SOLVING FOR HEAD 
                                                   Max.-Head-Change                        Max.-Flux-Residual
  Residual-Control   Outer-Iter.   Inner-Iter.     Column Row Layer    Max.-Head-Change    Column Row Layer    Max.-Flux-Residual            L2-New               L2-Old           Solver-Max-Delh
          0                 1           3            77   94     1      -0.8758806603E+00      77   94    1      -0.2107750618E+04      0.8966448426E+04      0.2259088971E+01     -0.8758806603E+00
          0                 2           2           302  100     1       0.1051570079E+00      77   94    1       0.2106738875E+03      0.8967778143E+03      0.8966448426E+04      0.1051570079E+00
          0                 3           2           302  100     1       0.1003518336E+00      77   94    1       0.1053295623E+02      0.4483744014E+02      0.8967778143E+03      0.1003518336E+00
          0                 4           2           302  100     1       0.9571621254E-01      77   94    1       0.5265413902E+00      0.2241456352E+01      0.4483744014E+02      0.9571621254E-01

    ------------------------------------------------
       NWT REQUIRED            4 OUTER ITERATIONS 
       AND A TOTAL OF          9 INNER ITERATIONS.
    ------------------------------------------------

 NO OUTPUT CONTROL FOR STRESS PERIOD   19   TIME STEP    6

 WELLS WITH REDUCED PUMPING FOR STRESS PERIOD    19 TIME STEP     6
   LAY   ROW   COL         APPL.Q          ACT.Q        GW-HEAD       CELL-BOT
     1    92    77  -0.234339E+04  -0.514848E+03  -0.856984E+02  -0.930000E+02


 SOLVING FOR HEAD 
                                                   Max.-Head-Change                        Max.-Flux-Residual
  Residual-Control   Outer-Iter.   Inner-Iter.     Column Row Layer    Max.-Head-Change    Column Row Layer    Max.-Flux-Residual            L2-New               L2-Old           Solver-Max-Delh
          0                 1           3            77   94     1      -0.8752417448E+00      77   94    1      -0.2106128918E+04      0.8902502472E+04      0.2241456352E+01     -0.8752417448E+00
          0                 2           2           302  100     1       0.9977851535E-01      77   94    1       0.2105118636E+03      0.8906777621E+03      0.8902502472E+04      0.9977851535E-01

    ------------------------------------------------
       NWT REQUIRED            2 OUTER ITERATIONS 
       AND A TOTAL OF          5 INNER ITERATIONS.
    ------------------------------------------------

 NO OUTPUT CONTROL FOR STRESS PERIOD   19   TIME STEP    7

 WELLS WITH REDUCED PUMPING FOR STRESS PERIOD    19 TIME STEP     7
   LAY   ROW   COL         APPL.Q          ACT.Q        GW-HEAD       CELL-BOT
     1    92    77  -0.234339E+04  -0.514584E+03  -0.857005E+02  -0.930000E+02


 SOLVING FOR HEAD 
                                                   Max.-Head-Change                        Max.-Flux-Residual
  Residual-Control   Outer-Iter.   Inner-Iter.     Column Row Layer    Max.-Head-Change    Column Row Layer    Max.-Flux-Residual            L2-New               L2-Old           Solver-Max-Delh
          0                 1           3            77   94     1      -0.8746004074E+00      77   94    1      -0.2104501152E+04      0.8845029000E+04      0.4453292867E+02     -0.8746004074E+00
          0                 2           2           302  100     1       0.1017332372E+00      77   94    1       0.2103492340E+03      0.8843453416E+03      0.8845029000E+04      0.1017332372E+00
          0                 3           2           302  100     1       0.9556944737E-01      77   94    1       0.1051672584E+02      0.4421621259E+02      0.8843453416E+03      0.9556944737E-01

    ------------------------------------------------
       NWT REQUIRED            3 OUTER ITERATIONS 
       AND A TOTAL OF          7 INNER ITERATIONS.
    ------------------------------------------------

 NO OUTPUT CONTROL FOR STRESS PERIOD   19   TIME STEP    8

 WELLS WITH REDUCED PUMPING FOR STRESS PERIOD    19 TIME STEP     8
   LAY   ROW   COL         APPL.Q          ACT.Q        GW-HEAD       CELL-BOT
     1    92    77  -0.234339E+04  -0.514356E+03  -0.857024E+02  -0.930000E+02


 SOLVING FOR HEAD 
                                                   Max.-Head-Change                        Max.-Flux-Residual
  Residual-Control   Outer-Iter.   Inner-Iter.     Column Row Layer    Max.-Head-Change    Column Row Layer    Max.-Flux-Residual            L2-New               L2-Old           Solver-Max-Delh
          0                 1           3            77   94     1      -0.8739628623E+00      77   94    1      -0.2102883092E+04      0.8793245776E+04      0.4421621259E+02     -0.8739628623E+00
          0                 2           2           302  100     1       0.9501939543E-01      77   94    1       0.2101875736E+03      0.8792019887E+03      0.8793245776E+04      0.9501939543E-01

    ------------------------------------------------
       NWT REQUIRED            2 OUTER ITERATIONS 
       AND A TOTAL OF          5 INNER ITERATIONS.
    ------------------------------------------------

 NO OUTPUT CONTROL FOR STRESS PERIOD   19   TIME STEP    9

 WELLS WITH REDUCED PUMPING FOR STRESS PERIOD    19 TIME STEP     9
   LAY   ROW   COL         APPL.Q          ACT.Q        GW-HEAD       CELL-BOT
     1    92    77  -0.234339E+04  -0.514144E+03  -0.857041E+02  -0.930000E+02


 SOLVING FOR HEAD 
                                                   Max.-Head-Change                        Max.-Flux-Residual
  Residual-Control   Outer-Iter.   Inner-Iter.     Column Row Layer    Max.-Head-Change    Column Row Layer    Max.-Flux-Residual            L2-New               L2-Old           Solver-Max-Delh
          0                 1           3            77   94     1      -0.8733230547E+00      77   94    1      -0.2101259370E+04      0.8745314826E+04      0.4395948131E+02     -0.8733230547E+00
          0                 2           2           302  100     1       0.9219720342E-01      77   94    1       0.2100253475E+03      0.8744243060E+03      0.8745314826E+04      0.9219720342E-01

    ------------------------------------------------
       NWT REQUIRED            2 OUTER ITERATIONS 
       AND A TOTAL OF          5 INNER ITERATIONS.
    ------------------------------------------------

 OUTPUT CONTROL FOR STRESS PERIOD   19   TIME STEP   10
    SAVE HEAD FOR ALL LAYERS

 WELLS WITH REDUCED PUMPING FOR STRESS PERIOD    19 TIME STEP    10
   LAY   ROW   COL         APPL.Q          ACT.Q        GW-HEAD       CELL-BOT
     1    92    77  -0.234339E+04  -0.513941E+03  -0.857057E+02  -0.930000E+02


 HEAD WILL BE SAVED ON UNIT   51 AT END OF TIME STEP   10, STRESS PERIOD   19
1
  VOLUMETRIC BUDGET FOR ENTIRE MODEL AT END OF TIME STEP   10, STRESS PERIOD  19
  ------------------------------------------------------------------------------

     CUMULATIVE VOLUMES      L**3       RATES FOR THIS TIME STEP      L**3/T
     ------------------                 ------------------------

           IN:                                      IN:
           ---                                      ---
             STORAGE =   269672704.0000               STORAGE =      471765.8125
       CONSTANT HEAD =    28141898.0000         CONSTANT HEAD =       50795.9727
               WELLS =           0.0000                 WELLS =           0.0000
              DRAINS =           0.0000                DRAINS =           0.0000
                  ET =           0.0000                    ET =           0.0000
            RECHARGE =    91307096.0000              RECHARGE =      126042.0938

            TOTAL IN =   389121696.0000              TOTAL IN =      648603.8750

          OUT:                                     OUT:
          ----                                     ----
             STORAGE =    91503144.0000               STORAGE =       22125.5508
       CONSTANT HEAD =           0.0000         CONSTANT HEAD =           0.0000
               WELLS =   202462960.0000                 WELLS =      496098.7500
              DRAINS =    63889368.0000                DRAINS =       92546.2812
                  ET =    30775196.0000                    ET =       35593.2969
            RECHARGE =       81860.0000              RECHARGE =           0.0000

           TOTAL OUT =   388712544.0000             TOTAL OUT =      646363.9375

            IN - OUT =      409152.0000              IN - OUT =        2239.9375

 PERCENT DISCREPANCY =           0.11     PERCENT DISCREPANCY =           0.35






         TIME SUMMARY AT END OF TIME STEP   10 IN STRESS PERIOD   19
                    SECONDS     MINUTES      HOURS       DAYS        YEARS
                    -----------------------------------------------------------
   TIME STEP LENGTH 2.62656E+05  4377.6      72.960      3.0400     8.32307E-03
 STRESS PERIOD TIME 2.62656E+06  43776.      729.60      30.400     8.32307E-02
         TOTAL TIME 4.99046E+07 8.31744E+05  13862.      577.60      1.5814    
1
1
                            STRESS PERIOD NO.   20, LENGTH =   30.40000    
                            -----------------------------------------------

                              NUMBER OF TIME STEPS =    10

                               MULTIPLIER FOR DELT =     1.000

                            INITIAL TIME STEP SIZE =   3.040000    

 WELL NO.  LAYER   ROW   COL   STRESS RATE         
 --------------------------------------------------
      1      1     69    225      -1642.    
      2      1     71    224      -6048.    
      3      1     74    220      -6134.    
      4      1     73    220       0.000    
      5      1     71    223      -6221.    
      6      1     71    223      -7344.    
      7      1     72    223      -6394.    
      8      1     92    173      -6653.    
      9      1     94    174      -5875.    
     10      1     93    175       0.000    
     11      1    203    328      -5875.    
     12      1    438    460      -0.000    
     13      1    436    461      -0.000    
     14      1    410    454      -0.000    
     15      1    433    460      -0.000    
     16      1    431    462      -0.000    
     17      1    417    459      -0.000    
     18      1    418    458      -0.000    
     19      1    414    455      -0.000    
     20      1    443    464      -0.000    
     21      1    379    425      -0.000    
     22      1    362    405      -0.000    
     23      1    361    405      -0.000    
     24      1    362    406      -0.000    
     25      1    363    408      -0.000    
     26      1    364    410      -0.000    
     27      1    369    418      -0.000    
     28      1    367    417      -0.000    
     29      1    365    415      -0.000    
     30      1    402    447      -0.000    
     31      1    400    446      -0.000    
     32      1    392    444      -0.000    
     33      1    391    441      -0.000    
     34      1    403    448      -0.000    
     35      1    405    447      -0.000    
     36      1    362    410      -0.000    
     37      1    362    411      -0.000    
     38      1    363    412      -0.000    
     39      1    375    421      -0.000    
     40      1    383    430      -0.000    
     41      1    397    445      -0.000    
     42      1    360    403      -0.000    
     43      1    350    401      -0.000    
     44      1    346    393      -65.77    
     45      1    333    387      -65.77    
     46      1    328    384      -65.77    
     47      1    326    383      -65.77    
     48      1    323    378      -65.77    
     49      1    321    378      -65.77    
     50      1    322    376      -65.77    
     51      1    316    374      -65.77    
     52      1    311    371      -65.77    
     53      1    307    369      -65.77    
     54      1    305    368      -65.77    
     55      1    303    368      -65.77    
     56      1    300    369      -65.77    
     57      1    293    364      -65.77    
     58      1    292    362      -65.77    
     59      1    278    350      -65.77    
     60      1    274    351      -65.77    
     61      1    273    350      -65.77    
     62      1    271    350      -65.77    
     63      1    267    348      -65.77    
     64      1    263    348      -65.77    
     65      1    263    348      -65.77    
     66      1    248    347      -65.77    
     67      1    243    342      -65.77    
     68      1    242    339      -65.77    
     69      1    238    341      -65.77    
     70      1    233    340      -65.77    
     71      1    232    340      -65.77    
     72      1    229    341      -65.77    
     73      1    227    341      -65.77    
     74      1    219    342      -65.77    
     75      1    219    336      -65.77    
     76      1    199    329      -65.77    
     77      1    191    332      -145.5    
     78      1    190    332      -145.5    
     79      1    130    310      -145.5    
     80      1    123    305      -145.5    
     81      1    104    289      -145.5    
     82      1     96    287      -510.6    
     83      1     95    284      -510.6    
     84      1     95    280      -510.6    
     85      1     93    276      -510.6    
     86      1     94    275      -510.6    
     87      1     90    277      -510.6    
     88      1     90    273      -510.6    
     89      1     86    271      -510.6    
     90      1     85    270      -510.6    
     91      1     84    265      -510.6    
     92      1     85    265      -510.6    
     93      1     84    264      -510.6    
     94      1     79    263      -510.6    
     95      1     79    263      -510.6    
     96      1     76    262      -510.6    
     97      1     73    257      -510.6    
     98      1     74    255      -510.6    
     99      1     71    255      -510.6    
    100      1     66    253      -510.6    
    101      1     68    252      -510.6    
    102      1     69    250      -510.6    
    103      1     65    248      -510.6    
    104      1     68    248      -510.6    
    105      1     69    247      -510.6    
    106      1     73    247      -510.6    
    107      1     64    246      -510.6    
    108      1     69    245      -510.6    
    109      1     72    245      -510.6    
    110      1     69    241      -510.6    
    111      1     73    238      -510.6    
    112      1     70    238      -510.6    
    113      1     76    263      -510.6    
    114      1     66    232      -620.9    
    115      1     69    229      -620.9    
    116      1     71    228      -620.9    
    117      1     69    227      -620.9    
    118      1     72    219      -620.9    
    119      1     72    218      -620.9    
    120      1     72    218      -620.9    
    121      1     73    217      -620.9    
    122      1     77    219      -620.9    
    123      1     78    219      -620.9    
    124      1     83    213      -620.9    
    125      1     77    213      -620.9    
    126      1     81    211      -620.9    
    127      1     81    210      -620.9    
    128      1     81    210      -620.9    
    129      1     82    208      -620.9    
    130      1     80    205      -620.9    
    131      1     86    202      -620.9    
    132      1     84    200      -620.9    
    133      1     89    200      -620.9    
    134      1     89    199      -620.9    
    135      1     88    199      -620.9    
    136      1     86    199      -620.9    
    137      1     85    199      -620.9    
    138      1     82    197      -620.9    
    139      1     86    197      -620.9    
    140      1     88    198      -620.9    
    141      1     90    192      -620.9    
    142      1     89    191      -620.9    
    143      1     84    192      -620.9    
    144      1     91    189      -620.9    
    145      1     92    185      -620.9    
    146      1     87    183      -620.9    
    147      1     92    182      -620.9    
    148      1     90    182      -620.9    
    149      1     88    179      -620.9    
    150      1     89    176      -620.9    
    151      1     92    172      -620.9    
    152      1     93    164      -620.9    
    153      1     94    162      -620.9    
    154      1    103    156      -620.9    
    155      1    103    156      -620.9    
    156      1     96    154      -620.9    
    157      1     97    153      -620.9    
    158      1    122    139      -620.9    
    159      1     92     77      -620.9    
    160      1     94     77      -620.9    
    161      1     94     73      -620.9    
    162      1     97    152      -620.9    
    163      1    118    337      -666.7    
    164      1    133    319      -2678.    
    165      1    131    320      -3951.    
    166      1    133    321      -2956.    
    167      1    161    329      -2141.    
    168      1    178    330      -551.0    
    169      1    163    330      -1122.    
    170      1    131    320      -2473.    
    171      1    129    315      -3937.    
    172      1    162    329      -1959.    
    173      1    131    311      -826.1    
    174      1    221    340      -1994.    
    175      1    220    340      -1034.    
    176      1    221    340      -667.7    
    177      1    137    322      -2082.    
    178      1    137    321      -1407.    
    179      1    185    329      -2012.    
    180      1    183    329      -1473.    
    181      1    175    329      -585.3    
    182      1     79    243      -1490.    
    183      1     77    245      -2414.    
    184      1    199    329      -1617.    
    185      1    198    330      -2514.    
    186      1    140    328      -972.1    
    187      1    143    327      -863.6    
    188      1    139    327      -1331.    

    188 WELLS

 REUSING NON-PARAMETER DRAINS FROM LAST STRESS PERIOD

   1061 DRAINS

 REUSING SURF FROM LAST STRESS PERIOD

 REUSING EVTR FROM LAST STRESS PERIOD

 REUSING EXDP FROM LAST STRESS PERIOD



                           RECHARGE
 READING ON UNIT   19 WITH FORMAT: (510E15.6)          

 SOLVING FOR HEAD 
                                                   Max.-Head-Change                        Max.-Flux-Residual
  Residual-Control   Outer-Iter.   Inner-Iter.     Column Row Layer    Max.-Head-Change    Column Row Layer    Max.-Flux-Residual            L2-New               L2-Old           Solver-Max-Delh
          0                 1           3           263   79     1       0.1851101426E+02     348  263    1       0.7316402613E+04      0.3260769570E+05      0.4372036640E+02      0.1851101426E+02
          0                 2           2           263   79     1      -0.1762979097E+01     348  263    1      -0.8366571489E+03      0.3384506597E+04      0.3260769570E+05     -0.1762979097E+01
          0                 3           2           263   79     1      -0.9002038636E-01     348  263    1      -0.4216064229E+02      0.1699386995E+03      0.3384506597E+04     -0.9002038636E-01

    ------------------------------------------------
       NWT REQUIRED            3 OUTER ITERATIONS 
       AND A TOTAL OF          7 INNER ITERATIONS.
    ------------------------------------------------

 NO OUTPUT CONTROL FOR STRESS PERIOD   20   TIME STEP    1

 WELLS WITH REDUCED PUMPING FOR STRESS PERIOD    20 TIME STEP     1
   LAY   ROW   COL         APPL.Q          ACT.Q        GW-HEAD       CELL-BOT
     1    92    77  -0.620891E+03  -0.208242E+03  -0.836380E+02  -0.930000E+02


 SOLVING FOR HEAD 
                                                   Max.-Head-Change                        Max.-Flux-Residual
  Residual-Control   Outer-Iter.   Inner-Iter.     Column Row Layer    Max.-Head-Change    Column Row Layer    Max.-Flux-Residual            L2-New               L2-Old           Solver-Max-Delh
          0                 1           3           263   79     1       0.7232285067E+01     393  346    1       0.3038411030E+04      0.1434887855E+05      0.1699386995E+03      0.7232285067E+01
          0                 2           2           263   79     1      -0.6619147184E+00     393  346    1      -0.3040362388E+03      0.1448565089E+04      0.1434887855E+05     -0.6619147184E+00
          0                 3           2           302  100     1       0.6562004566E-01     393  346    1      -0.1520326093E+02      0.7268353013E+02      0.1448565089E+04      0.6562004566E-01

    ------------------------------------------------
       NWT REQUIRED            3 OUTER ITERATIONS 
       AND A TOTAL OF          7 INNER ITERATIONS.
    ------------------------------------------------

 NO OUTPUT CONTROL FOR STRESS PERIOD   20   TIME STEP    2

 WELLS WITH REDUCED PUMPING FOR STRESS PERIOD    20 TIME STEP     2
   LAY   ROW   COL         APPL.Q          ACT.Q        GW-HEAD       CELL-BOT
     1    92    77  -0.620891E+03  -0.267547E+03  -0.820617E+02  -0.930000E+02


 SOLVING FOR HEAD 
                                                   Max.-Head-Change                        Max.-Flux-Residual
  Residual-Control   Outer-Iter.   Inner-Iter.     Column Row Layer    Max.-Head-Change    Column Row Layer    Max.-Flux-Residual            L2-New               L2-Old           Solver-Max-Delh
          0                 1           3           263   79     1       0.3095598433E+01     393  346    1       0.2637697842E+04      0.1082789461E+05      0.7268353013E+02      0.3095598433E+01
          0                 2           2           263   79     1      -0.2787279209E+00     393  346    1      -0.2639446667E+03      0.1093871259E+04      0.1082789461E+05     -0.2787279209E+00
          0                 3           2           302  100     1       0.5197841645E-01     393  346    1      -0.1319853198E+02      0.5455230311E+02      0.1093871259E+04      0.5197841645E-01

    ------------------------------------------------
       NWT REQUIRED            3 OUTER ITERATIONS 
       AND A TOTAL OF          7 INNER ITERATIONS.
    ------------------------------------------------

 NO OUTPUT CONTROL FOR STRESS PERIOD   20   TIME STEP    3

 WELLS WITH REDUCED PUMPING FOR STRESS PERIOD    20 TIME STEP     3
   LAY   ROW   COL         APPL.Q          ACT.Q        GW-HEAD       CELL-BOT
     1    92    77  -0.620891E+03  -0.313625E+03  -0.808660E+02  -0.930000E+02


 SOLVING FOR HEAD 
                                                   Max.-Head-Change                        Max.-Flux-Residual
  Residual-Control   Outer-Iter.   Inner-Iter.     Column Row Layer    Max.-Head-Change    Column Row Layer    Max.-Flux-Residual            L2-New               L2-Old           Solver-Max-Delh
          0                 1           3           263   79     1       0.1488069393E+01     393  346    1       0.2294700764E+04      0.9156364991E+04      0.5455230311E+02      0.1488069393E+01
          0                 2           2           263   79     1      -0.1303406438E+00     393  346    1      -0.2296218071E+03      0.9212620598E+03      0.9156364991E+04     -0.1303406438E+00
          0                 3           2           457  456     1       0.4942057359E-01     393  346    1      -0.1148221699E+02      0.4607072247E+02      0.9212620598E+03      0.4942057359E-01

    ------------------------------------------------
       NWT REQUIRED            3 OUTER ITERATIONS 
       AND A TOTAL OF          7 INNER ITERATIONS.
    ------------------------------------------------

 NO OUTPUT CONTROL FOR STRESS PERIOD   20   TIME STEP    4

 WELLS WITH REDUCED PUMPING FOR STRESS PERIOD    20 TIME STEP     4
   LAY   ROW   COL         APPL.Q          ACT.Q        GW-HEAD       CELL-BOT
     1    92    77  -0.620891E+03  -0.348578E+03  -0.799592E+02  -0.930000E+02


 SOLVING FOR HEAD 
                                                   Max.-Head-Change                        Max.-Flux-Residual
  Residual-Control   Outer-Iter.   Inner-Iter.     Column Row Layer    Max.-Head-Change    Column Row Layer    Max.-Flux-Residual            L2-New               L2-Old           Solver-Max-Delh
          0                 1           3           264   78     1       0.1048660263E+01     383  326    1       0.2052992565E+04      0.8141448590E+04      0.4607072247E+02      0.1048660263E+01
          0                 2           2           264   78     1      -0.9192738287E-01     383  326    1      -0.2054370132E+03      0.8165614897E+03      0.8141448590E+04     -0.9192738287E-01

    ------------------------------------------------
       NWT REQUIRED            2 OUTER ITERATIONS 
       AND A TOTAL OF          5 INNER ITERATIONS.
    ------------------------------------------------

 NO OUTPUT CONTROL FOR STRESS PERIOD   20   TIME STEP    5

 WELLS WITH REDUCED PUMPING FOR STRESS PERIOD    20 TIME STEP     5
   LAY   ROW   COL         APPL.Q          ACT.Q        GW-HEAD       CELL-BOT
     1    92    77  -0.620891E+03  -0.374989E+03  -0.792670E+02  -0.930000E+02


 SOLVING FOR HEAD 
                                                   Max.-Head-Change                        Max.-Flux-Residual
  Residual-Control   Outer-Iter.   Inner-Iter.     Column Row Layer    Max.-Head-Change    Column Row Layer    Max.-Flux-Residual            L2-New               L2-Old           Solver-Max-Delh
          0                 1           3           264   78     1       0.8603896075E+00     383  326    1       0.1853324414E+04      0.7441265489E+04      0.4083325832E+02      0.8603896075E+00
          0                 2           2           264   78     1      -0.7624879570E-01     383  326    1      -0.1854657722E+03      0.7447128375E+03      0.7441265489E+04     -0.7624879570E-01

    ------------------------------------------------
       NWT REQUIRED            2 OUTER ITERATIONS 
       AND A TOTAL OF          5 INNER ITERATIONS.
    ------------------------------------------------

 NO OUTPUT CONTROL FOR STRESS PERIOD   20   TIME STEP    6

 WELLS WITH REDUCED PUMPING FOR STRESS PERIOD    20 TIME STEP     6
   LAY   ROW   COL         APPL.Q          ACT.Q        GW-HEAD       CELL-BOT
     1    92    77  -0.620891E+03  -0.394791E+03  -0.787407E+02  -0.930000E+02


 SOLVING FOR HEAD 
                                                   Max.-Head-Change                        Max.-Flux-Residual
  Residual-Control   Outer-Iter.   Inner-Iter.     Column Row Layer    Max.-Head-Change    Column Row Layer    Max.-Flux-Residual            L2-New               L2-Old           Solver-Max-Delh
          0                 1           3           343  217     1       0.7884503325E+00     383  326    1       0.1679352768E+04      0.6924536377E+04      0.3721757588E+02      0.7884503325E+00
          0                 2           2           343  217     1      -0.6861746275E-01     383  326    1      -0.1680606660E+03      0.6931936651E+03      0.6924536377E+04     -0.6861746275E-01

    ------------------------------------------------
       NWT REQUIRED            2 OUTER ITERATIONS 
       AND A TOTAL OF          5 INNER ITERATIONS.
    ------------------------------------------------

 NO OUTPUT CONTROL FOR STRESS PERIOD   20   TIME STEP    7

 WELLS WITH REDUCED PUMPING FOR STRESS PERIOD    20 TIME STEP     7
   LAY   ROW   COL         APPL.Q          ACT.Q        GW-HEAD       CELL-BOT
     1    92    77  -0.620891E+03  -0.409662E+03  -0.783398E+02  -0.930000E+02


 SOLVING FOR HEAD 
                                                   Max.-Head-Change                        Max.-Flux-Residual
  Residual-Control   Outer-Iter.   Inner-Iter.     Column Row Layer    Max.-Head-Change    Column Row Layer    Max.-Flux-Residual            L2-New               L2-Old           Solver-Max-Delh
          0                 1           3           343  217     1       0.7424774746E+00     383  326    1       0.1527307282E+04      0.6526690454E+04      0.3466090087E+02      0.7424774746E+00
          0                 2           2           343  217     1      -0.6460440805E-01     383  326    1      -0.1528464323E+03      0.6528796083E+03      0.6526690454E+04     -0.6460440805E-01

    ------------------------------------------------
       NWT REQUIRED            2 OUTER ITERATIONS 
       AND A TOTAL OF          5 INNER ITERATIONS.
    ------------------------------------------------

 NO OUTPUT CONTROL FOR STRESS PERIOD   20   TIME STEP    8

 WELLS WITH REDUCED PUMPING FOR STRESS PERIOD    20 TIME STEP     8
   LAY   ROW   COL         APPL.Q          ACT.Q        GW-HEAD       CELL-BOT
     1    92    77  -0.620891E+03  -0.420854E+03  -0.780341E+02  -0.930000E+02


 SOLVING FOR HEAD 
                                                   Max.-Head-Change                        Max.-Flux-Residual
  Residual-Control   Outer-Iter.   Inner-Iter.     Column Row Layer    Max.-Head-Change    Column Row Layer    Max.-Flux-Residual            L2-New               L2-Old           Solver-Max-Delh
          0                 1           3           343  217     1       0.6903733357E+00     383  326    1       0.1394024109E+04      0.6210916897E+04      0.3264702430E+02      0.6903733357E+00
          0                 2           2           343  217     1      -0.6004583736E-01     383  326    1      -0.1395078016E+03      0.6213454936E+03      0.6210916897E+04     -0.6004583736E-01

    ------------------------------------------------
       NWT REQUIRED            2 OUTER ITERATIONS 
       AND A TOTAL OF          5 INNER ITERATIONS.
    ------------------------------------------------

 NO OUTPUT CONTROL FOR STRESS PERIOD   20   TIME STEP    9

 WELLS WITH REDUCED PUMPING FOR STRESS PERIOD    20 TIME STEP     9
   LAY   ROW   COL         APPL.Q          ACT.Q        GW-HEAD       CELL-BOT
     1    92    77  -0.620891E+03  -0.429294E+03  -0.778009E+02  -0.930000E+02


 SOLVING FOR HEAD 
                                                   Max.-Head-Change                        Max.-Flux-Residual
  Residual-Control   Outer-Iter.   Inner-Iter.     Column Row Layer    Max.-Head-Change    Column Row Layer    Max.-Flux-Residual            L2-New               L2-Old           Solver-Max-Delh
          0                 1           3           343  217     1       0.6372304420E+00     383  326    1       0.1276842973E+04      0.5953793649E+04      0.3106735546E+02      0.6372304420E+00
          0                 2           2           343  217     1      -0.5539605026E-01     383  326    1      -0.1277794275E+03      0.5989918182E+03      0.5953793649E+04     -0.5539605026E-01

    ------------------------------------------------
       NWT REQUIRED            2 OUTER ITERATIONS 
       AND A TOTAL OF          5 INNER ITERATIONS.
    ------------------------------------------------

 OUTPUT CONTROL FOR STRESS PERIOD   20   TIME STEP   10
    SAVE HEAD FOR ALL LAYERS

 WELLS WITH REDUCED PUMPING FOR STRESS PERIOD    20 TIME STEP    10
   LAY   ROW   COL         APPL.Q          ACT.Q        GW-HEAD       CELL-BOT
     1    92    77  -0.620891E+03  -0.435664E+03  -0.776232E+02  -0.930000E+02


 HEAD WILL BE SAVED ON UNIT   51 AT END OF TIME STEP   10, STRESS PERIOD   20
1
  VOLUMETRIC BUDGET FOR ENTIRE MODEL AT END OF TIME STEP   10, STRESS PERIOD  20
  ------------------------------------------------------------------------------

     CUMULATIVE VOLUMES      L**3       RATES FOR THIS TIME STEP      L**3/T
     ------------------                 ------------------------

           IN:                                      IN:
           ---                                      ---
             STORAGE =   278040928.0000               STORAGE =      243796.2500
       CONSTANT HEAD =    29687796.0000         CONSTANT HEAD =       50896.7031
               WELLS =           0.0000                 WELLS =           0.0000
              DRAINS =           0.0000                DRAINS =           0.0000
                  ET =           0.0000                    ET =           0.0000
            RECHARGE =    93293336.0000              RECHARGE =       65337.0625

            TOTAL IN =   401022080.0000              TOTAL IN =      360030.0000

          OUT:                                     OUT:
          ----                                     ----
             STORAGE =    94887392.0000               STORAGE =       75774.1484
       CONSTANT HEAD =           0.0000         CONSTANT HEAD =           0.0000
               WELLS =   206907424.0000                 WELLS =      146275.2812
              DRAINS =    66837760.0000                DRAINS =      100024.9688
                  ET =    31882904.0000                    ET =       37119.6172
            RECHARGE =       81860.0000              RECHARGE =           0.0000

           TOTAL OUT =   400597344.0000             TOTAL OUT =      359194.0312

            IN - OUT =      424736.0000              IN - OUT =         835.9688

 PERCENT DISCREPANCY =           0.11     PERCENT DISCREPANCY =           0.23






         TIME SUMMARY AT END OF TIME STEP   10 IN STRESS PERIOD   20
                    SECONDS     MINUTES      HOURS       DAYS        YEARS
                    -----------------------------------------------------------
   TIME STEP LENGTH 2.62656E+05  4377.6      72.960      3.0400     8.32307E-03
 STRESS PERIOD TIME 2.62656E+06  43776.      729.60      30.400     8.32307E-02
         TOTAL TIME 5.25312E+07 8.75520E+05  14592.      608.00      1.6646    
1
1
                            STRESS PERIOD NO.   21, LENGTH =   30.40000    
                            -----------------------------------------------

                              NUMBER OF TIME STEPS =    10

                               MULTIPLIER FOR DELT =     1.000

                            INITIAL TIME STEP SIZE =   3.040000    

 WELL NO.  LAYER   ROW   COL   STRESS RATE         
 --------------------------------------------------
      1      1     69    225      -1728.    
      2      1     71    224      -6048.    
      3      1     74    220      -6134.    
      4      1     73    220       0.000    
      5      1     71    223      -6221.    
      6      1     71    223      -7344.    
      7      1     72    223      -6394.    
      8      1     92    173      -6653.    
      9      1     94    174      -5875.    
     10      1     93    175       0.000    
     11      1    203    328      -5875.    
     12      1    438    460      -611.1    
     13      1    436    461      -611.1    
     14      1    410    454      -611.1    
     15      1    433    460      -611.1    
     16      1    431    462      -611.1    
     17      1    417    459      -611.1    
     18      1    418    458      -611.1    
     19      1    414    455      -611.1    
     20      1    443    464      -611.1    
     21      1    379    425      -611.1    
     22      1    362    405      -611.1    
     23      1    361    405      -611.1    
     24      1    362    406      -611.1    
     25      1    363    408      -611.1    
     26      1    364    410      -611.1    
     27      1    369    418      -611.1    
     28      1    367    417      -611.1    
     29      1    365    415      -611.1    
     30      1    402    447      -611.1    
     31      1    400    446      -611.1    
     32      1    392    444      -611.1    
     33      1    391    441      -611.1    
     34      1    403    448      -611.1    
     35      1    405    447      -611.1    
     36      1    362    410      -611.1    
     37      1    362    411      -611.1    
     38      1    363    412      -611.1    
     39      1    375    421      -611.1    
     40      1    383    430      -611.1    
     41      1    397    445      -611.1    
     42      1    360    403      -611.1    
     43      1    350    401      -611.1    
     44      1    346    393      -737.0    
     45      1    333    387      -737.0    
     46      1    328    384      -737.0    
     47      1    326    383      -737.0    
     48      1    323    378      -737.0    
     49      1    321    378      -737.0    
     50      1    322    376      -737.0    
     51      1    316    374      -737.0    
     52      1    311    371      -737.0    
     53      1    307    369      -737.0    
     54      1    305    368      -737.0    
     55      1    303    368      -737.0    
     56      1    300    369      -737.0    
     57      1    293    364      -737.0    
     58      1    292    362      -737.0    
     59      1    278    350      -737.0    
     60      1    274    351      -737.0    
     61      1    273    350      -737.0    
     62      1    271    350      -737.0    
     63      1    267    348      -737.0    
     64      1    263    348      -737.0    
     65      1    263    348      -737.0    
     66      1    248    347      -737.0    
     67      1    243    342      -737.0    
     68      1    242    339      -737.0    
     69      1    238    341      -737.0    
     70      1    233    340      -737.0    
     71      1    232    340      -737.0    
     72      1    229    341      -737.0    
     73      1    227    341      -737.0    
     74      1    219    342      -737.0    
     75      1    219    336      -737.0    
     76      1    199    329      -737.0    
     77      1    191    332      -1071.    
     78      1    190    332      -1071.    
     79      1    130    310      -1071.    
     80      1    123    305      -1071.    
     81      1    104    289      -1071.    
     82      1     96    287      -1045.    
     83      1     95    284      -1045.    
     84      1     95    280      -1045.    
     85      1     93    276      -1045.    
     86      1     94    275      -1045.    
     87      1     90    277      -1045.    
     88      1     90    273      -1045.    
     89      1     86    271      -1045.    
     90      1     85    270      -1045.    
     91      1     84    265      -1045.    
     92      1     85    265      -1045.    
     93      1     84    264      -1045.    
     94      1     79    263      -1045.    
     95      1     79    263      -1045.    
     96      1     76    262      -1045.    
     97      1     73    257      -1045.    
     98      1     74    255      -1045.    
     99      1     71    255      -1045.    
    100      1     66    253      -1045.    
    101      1     68    252      -1045.    
    102      1     69    250      -1045.    
    103      1     65    248      -1045.    
    104      1     68    248      -1045.    
    105      1     69    247      -1045.    
    106      1     73    247      -1045.    
    107      1     64    246      -1045.    
    108      1     69    245      -1045.    
    109      1     72    245      -1045.    
    110      1     69    241      -1045.    
    111      1     73    238      -1045.    
    112      1     70    238      -1045.    
    113      1     76    263      -1045.    
    114      1     66    232      -728.1    
    115      1     69    229      -728.1    
    116      1     71    228      -728.1    
    117      1     69    227      -728.1    
    118      1     72    219      -728.1    
    119      1     72    218      -728.1    
    120      1     72    218      -728.1    
    121      1     73    217      -728.1    
    122      1     77    219      -728.1    
    123      1     78    219      -728.1    
    124      1     83    213      -728.1    
    125      1     77    213      -728.1    
    126      1     81    211      -728.1    
    127      1     81    210      -728.1    
    128      1     81    210      -728.1    
    129      1     82    208      -728.1    
    130      1     80    205      -728.1    
    131      1     86    202      -728.1    
    132      1     84    200      -728.1    
    133      1     89    200      -728.1    
    134      1     89    199      -728.1    
    135      1     88    199      -728.1    
    136      1     86    199      -728.1    
    137      1     85    199      -728.1    
    138      1     82    197      -728.1    
    139      1     86    197      -728.1    
    140      1     88    198      -728.1    
    141      1     90    192      -728.1    
    142      1     89    191      -728.1    
    143      1     84    192      -728.1    
    144      1     91    189      -728.1    
    145      1     92    185      -728.1    
    146      1     87    183      -728.1    
    147      1     92    182      -728.1    
    148      1     90    182      -728.1    
    149      1     88    179      -728.1    
    150      1     89    176      -728.1    
    151      1     92    172      -728.1    
    152      1     93    164      -728.1    
    153      1     94    162      -728.1    
    154      1    103    156      -728.1    
    155      1    103    156      -728.1    
    156      1     96    154      -728.1    
    157      1     97    153      -728.1    
    158      1    122    139      -728.1    
    159      1     92     77      -728.1    
    160      1     94     77      -728.1    
    161      1     94     73      -728.1    
    162      1     97    152      -728.1    
    163      1    118    337      -666.7    
    164      1    133    319      -2678.    
    165      1    131    320      -3951.    
    166      1    133    321      -2956.    
    167      1    161    329      -2141.    
    168      1    178    330      -551.0    
    169      1    163    330      -1122.    
    170      1    131    320      -2473.    
    171      1    129    315      -3937.    
    172      1    162    329      -1959.    
    173      1    131    311      -826.1    
    174      1    221    340      -1994.    
    175      1    220    340      -1034.    
    176      1    221    340      -667.7    
    177      1    137    322      -2082.    
    178      1    137    321      -1407.    
    179      1    185    329      -2012.    
    180      1    183    329      -1473.    
    181      1    175    329      -585.3    
    182      1     79    243      -1490.    
    183      1     77    245      -2414.    
    184      1    199    329      -1617.    
    185      1    198    330      -2514.    
    186      1    140    328      -972.1    
    187      1    143    327      -863.6    
    188      1    139    327      -1331.    

    188 WELLS

 REUSING NON-PARAMETER DRAINS FROM LAST STRESS PERIOD

   1061 DRAINS

 REUSING SURF FROM LAST STRESS PERIOD

 REUSING EVTR FROM LAST STRESS PERIOD

 REUSING EXDP FROM LAST STRESS PERIOD



                           RECHARGE
 READING ON UNIT   19 WITH FORMAT: (510E15.6)          

 SOLVING FOR HEAD 
                                                   Max.-Head-Change                        Max.-Flux-Residual
  Residual-Control   Outer-Iter.   Inner-Iter.     Column Row Layer    Max.-Head-Change    Column Row Layer    Max.-Flux-Residual            L2-New               L2-Old           Solver-Max-Delh
          0                 1           3           263   79     1      -0.2749391817E+01     348  263    1      -0.1308003948E+04      0.7489255119E+04      0.3039686056E+02     -0.2749391817E+01
          0                 2           2           263   79     1       0.2320749255E+00     348  263    1       0.1298309873E+03      0.7497916333E+03      0.7489255119E+04      0.2320749255E+00
          0                 3           2           457  456     1       0.5275177865E-01     348  263    1       0.6484391611E+01      0.3736612404E+02      0.7497916333E+03      0.5275177865E-01

    ------------------------------------------------
       NWT REQUIRED            3 OUTER ITERATIONS 
       AND A TOTAL OF          7 INNER ITERATIONS.
    ------------------------------------------------

 NO OUTPUT CONTROL FOR STRESS PERIOD   21   TIME STEP    1

 WELLS WITH REDUCED PUMPING FOR STRESS PERIOD    21 TIME STEP     1
   LAY   ROW   COL         APPL.Q          ACT.Q        GW-HEAD       CELL-BOT
     1    92    77  -0.728135E+03  -0.498993E+03  -0.779061E+02  -0.930000E+02


 SOLVING FOR HEAD 
                                                   Max.-Head-Change                        Max.-Flux-Residual
  Residual-Control   Outer-Iter.   Inner-Iter.     Column Row Layer    Max.-Head-Change    Column Row Layer    Max.-Flux-Residual            L2-New               L2-Old           Solver-Max-Delh
          0                 1           3           263   79     1      -0.1007036190E+01     139  122    1       0.6189530297E+03      0.5193377112E+04      0.3736612404E+02     -0.1007036190E+01
          0                 2           2           263   79     1       0.8660764227E-01     139  122    1      -0.6190232434E+02      0.5184266779E+03      0.5193377112E+04      0.8660764227E-01

    ------------------------------------------------
       NWT REQUIRED            2 OUTER ITERATIONS 
       AND A TOTAL OF          5 INNER ITERATIONS.
    ------------------------------------------------

 NO OUTPUT CONTROL FOR STRESS PERIOD   21   TIME STEP    2

 WELLS WITH REDUCED PUMPING FOR STRESS PERIOD    21 TIME STEP     2
   LAY   ROW   COL         APPL.Q          ACT.Q        GW-HEAD       CELL-BOT
     1    92    77  -0.728135E+03  -0.489874E+03  -0.781200E+02  -0.930000E+02


 SOLVING FOR HEAD 
                                                   Max.-Head-Change                        Max.-Flux-Residual
  Residual-Control   Outer-Iter.   Inner-Iter.     Column Row Layer    Max.-Head-Change    Column Row Layer    Max.-Flux-Residual            L2-New               L2-Old           Solver-Max-Delh
          0                 1           3           263   79     1      -0.3744135645E+00     139  122    1       0.5989163589E+03      0.4869861026E+04      0.2592466233E+02     -0.3744135645E+00
          0                 2           2           457  456     1       0.5367226069E-01     139  122    1      -0.5989833888E+02      0.4870031394E+03      0.4869861026E+04      0.5367226069E-01

    ------------------------------------------------
       NWT REQUIRED            2 OUTER ITERATIONS 
       AND A TOTAL OF          5 INNER ITERATIONS.
    ------------------------------------------------

 NO OUTPUT CONTROL FOR STRESS PERIOD   21   TIME STEP    3

 WELLS WITH REDUCED PUMPING FOR STRESS PERIOD    21 TIME STEP     3
   LAY   ROW   COL         APPL.Q          ACT.Q        GW-HEAD       CELL-BOT
     1    92    77  -0.728135E+03  -0.482956E+03  -0.782810E+02  -0.930000E+02


 SOLVING FOR HEAD 
                                                   Max.-Head-Change                        Max.-Flux-Residual
  Residual-Control   Outer-Iter.   Inner-Iter.     Column Row Layer    Max.-Head-Change    Column Row Layer    Max.-Flux-Residual            L2-New               L2-Old           Solver-Max-Delh
          0                 1           3           341  217     1       0.2638169015E+00     139  122    1       0.5796543252E+03      0.4730766496E+04      0.4870031394E+03      0.2638169015E+00
          0                 2           2           457  456     1       0.5412402981E-01     139  122    1      -0.5797182896E+02      0.4739511048E+03      0.4730766496E+04      0.5412402981E-01

    ------------------------------------------------
       NWT REQUIRED            2 OUTER ITERATIONS 
       AND A TOTAL OF          5 INNER ITERATIONS.
    ------------------------------------------------

 NO OUTPUT CONTROL FOR STRESS PERIOD   21   TIME STEP    4

 WELLS WITH REDUCED PUMPING FOR STRESS PERIOD    21 TIME STEP     4
   LAY   ROW   COL         APPL.Q          ACT.Q        GW-HEAD       CELL-BOT
     1    92    77  -0.728135E+03  -0.477704E+03  -0.784026E+02  -0.930000E+02


 SOLVING FOR HEAD 
                                                   Max.-Head-Change                        Max.-Flux-Residual
  Residual-Control   Outer-Iter.   Inner-Iter.     Column Row Layer    Max.-Head-Change    Column Row Layer    Max.-Flux-Residual            L2-New               L2-Old           Solver-Max-Delh
          0                 1           3           197   82     1       0.2303570686E+00     197   82    1       0.5638371804E+03      0.4645440443E+04      0.4739511048E+03      0.2303570686E+00
          0                 2           2           457  456     1       0.5456892462E-01     457  454    1      -0.5979531429E+02      0.4683736104E+03      0.4645440443E+04      0.5456892462E-01

    ------------------------------------------------
       NWT REQUIRED            2 OUTER ITERATIONS 
       AND A TOTAL OF          5 INNER ITERATIONS.
    ------------------------------------------------

 NO OUTPUT CONTROL FOR STRESS PERIOD   21   TIME STEP    5

 WELLS WITH REDUCED PUMPING FOR STRESS PERIOD    21 TIME STEP     5
   LAY   ROW   COL         APPL.Q          ACT.Q        GW-HEAD       CELL-BOT
     1    92    77  -0.728135E+03  -0.473702E+03  -0.784949E+02  -0.930000E+02


 SOLVING FOR HEAD 
                                                   Max.-Head-Change                        Max.-Flux-Residual
  Residual-Control   Outer-Iter.   Inner-Iter.     Column Row Layer    Max.-Head-Change    Column Row Layer    Max.-Flux-Residual            L2-New               L2-Old           Solver-Max-Delh
          0                 1           3           197   82     1       0.2258623706E+00     197   82    1       0.5528288440E+03      0.4583116404E+04      0.4683736104E+03      0.2258623706E+00
          0                 2           2           457  456     1       0.5500688646E-01     197   82    1      -0.5528741446E+02      0.4582855199E+03      0.4583116404E+04      0.5500688646E-01

    ------------------------------------------------
       NWT REQUIRED            2 OUTER ITERATIONS 
       AND A TOTAL OF          5 INNER ITERATIONS.
    ------------------------------------------------

 NO OUTPUT CONTROL FOR STRESS PERIOD   21   TIME STEP    6

 WELLS WITH REDUCED PUMPING FOR STRESS PERIOD    21 TIME STEP     6
   LAY   ROW   COL         APPL.Q          ACT.Q        GW-HEAD       CELL-BOT
     1    92    77  -0.728135E+03  -0.470636E+03  -0.785654E+02  -0.930000E+02


 SOLVING FOR HEAD 
                                                   Max.-Head-Change                        Max.-Flux-Residual
  Residual-Control   Outer-Iter.   Inner-Iter.     Column Row Layer    Max.-Head-Change    Column Row Layer    Max.-Flux-Residual            L2-New               L2-Old           Solver-Max-Delh
          0                 1           3           197   82     1       0.2214606092E+00     197   82    1       0.5420479487E+03      0.4533090113E+04      0.4582855199E+03      0.2214606092E+00
          0                 2           2           457  456     1       0.5543784728E-01     197   82    1      -0.5420917882E+02      0.4532955322E+03      0.4533090113E+04      0.5543784728E-01

    ------------------------------------------------
       NWT REQUIRED            2 OUTER ITERATIONS 
       AND A TOTAL OF          5 INNER ITERATIONS.
    ------------------------------------------------

 NO OUTPUT CONTROL FOR STRESS PERIOD   21   TIME STEP    7

 WELLS WITH REDUCED PUMPING FOR STRESS PERIOD    21 TIME STEP     7
   LAY   ROW   COL         APPL.Q          ACT.Q        GW-HEAD       CELL-BOT
     1    92    77  -0.728135E+03  -0.468266E+03  -0.786198E+02  -0.930000E+02


 SOLVING FOR HEAD 
                                                   Max.-Head-Change                        Max.-Flux-Residual
  Residual-Control   Outer-Iter.   Inner-Iter.     Column Row Layer    Max.-Head-Change    Column Row Layer    Max.-Flux-Residual            L2-New               L2-Old           Solver-Max-Delh
          0                 1           3           197   82     1       0.2171496846E+00     197   82    1       0.5314895583E+03      0.4490704717E+04      0.4532955322E+03      0.2171496846E+00
          0                 2           2           457  456     1       0.5586175135E-01     197   82    1      -0.5315319840E+02      0.4490542366E+03      0.4490704717E+04      0.5586175135E-01

    ------------------------------------------------
       NWT REQUIRED            2 OUTER ITERATIONS 
       AND A TOTAL OF          5 INNER ITERATIONS.
    ------------------------------------------------

 NO OUTPUT CONTROL FOR STRESS PERIOD   21   TIME STEP    8

 WELLS WITH REDUCED PUMPING FOR STRESS PERIOD    21 TIME STEP     8
   LAY   ROW   COL         APPL.Q          ACT.Q        GW-HEAD       CELL-BOT
     1    92    77  -0.728135E+03  -0.466415E+03  -0.786622E+02  -0.930000E+02


 SOLVING FOR HEAD 
                                                   Max.-Head-Change                        Max.-Flux-Residual
  Residual-Control   Outer-Iter.   Inner-Iter.     Column Row Layer    Max.-Head-Change    Column Row Layer    Max.-Flux-Residual            L2-New               L2-Old           Solver-Max-Delh
          0                 1           3           197   82     1       0.2129276005E+00     197   82    1       0.5211489235E+03      0.4453605645E+04      0.4490542366E+03      0.2129276005E+00
          0                 2           2           457  456     1       0.5627853969E-01     197   82    1      -0.5211899784E+02      0.4453467040E+03      0.4453605645E+04      0.5627853969E-01

    ------------------------------------------------
       NWT REQUIRED            2 OUTER ITERATIONS 
       AND A TOTAL OF          5 INNER ITERATIONS.
    ------------------------------------------------

 NO OUTPUT CONTROL FOR STRESS PERIOD   21   TIME STEP    9

 WELLS WITH REDUCED PUMPING FOR STRESS PERIOD    21 TIME STEP     9
   LAY   ROW   COL         APPL.Q          ACT.Q        GW-HEAD       CELL-BOT
     1    92    77  -0.728135E+03  -0.464949E+03  -0.786958E+02  -0.930000E+02


 SOLVING FOR HEAD 
                                                   Max.-Head-Change                        Max.-Flux-Residual
  Residual-Control   Outer-Iter.   Inner-Iter.     Column Row Layer    Max.-Head-Change    Column Row Layer    Max.-Flux-Residual            L2-New               L2-Old           Solver-Max-Delh
          0                 1           3           197   82     1       0.2087923479E+00     197   82    1       0.5110211545E+03      0.4420450064E+04      0.4453467040E+03      0.2087923479E+00
          0                 2           2           457  456     1       0.5668815517E-01     197   82    1      -0.5110608795E+02      0.4420312314E+03      0.4420450064E+04      0.5668815517E-01

    ------------------------------------------------
       NWT REQUIRED            2 OUTER ITERATIONS 
       AND A TOTAL OF          5 INNER ITERATIONS.
    ------------------------------------------------

 OUTPUT CONTROL FOR STRESS PERIOD   21   TIME STEP   10
    SAVE HEAD FOR ALL LAYERS

 WELLS WITH REDUCED PUMPING FOR STRESS PERIOD    21 TIME STEP    10
   LAY   ROW   COL         APPL.Q          ACT.Q        GW-HEAD       CELL-BOT
     1    92    77  -0.728135E+03  -0.463770E+03  -0.787227E+02  -0.930000E+02


 HEAD WILL BE SAVED ON UNIT   51 AT END OF TIME STEP   10, STRESS PERIOD   21
1
  VOLUMETRIC BUDGET FOR ENTIRE MODEL AT END OF TIME STEP   10, STRESS PERIOD  21
  ------------------------------------------------------------------------------

     CUMULATIVE VOLUMES      L**3       RATES FOR THIS TIME STEP      L**3/T
     ------------------                 ------------------------

           IN:                                      IN:
           ---                                      ---
             STORAGE =   285276160.0000               STORAGE =      232725.4375
       CONSTANT HEAD =    31236638.0000         CONSTANT HEAD =       50990.1797
               WELLS =           0.0000                 WELLS =           0.0000
              DRAINS =           0.0000                DRAINS =           0.0000
                  ET =           0.0000                    ET =           0.0000
            RECHARGE =    95980296.0000              RECHARGE =       88386.3906

            TOTAL IN =   412493088.0000              TOTAL IN =      372102.0000

          OUT:                                     OUT:
          ----                                     ----
             STORAGE =    96020664.0000               STORAGE =       31913.3145
       CONSTANT HEAD =           0.0000         CONSTANT HEAD =           0.0000
               WELLS =   213038688.0000                 WELLS =      201674.0469
              DRAINS =    69888592.0000                DRAINS =      100456.0078
                  ET =    33010996.0000                    ET =       37059.5273
            RECHARGE =       81860.0000              RECHARGE =           0.0000

           TOTAL OUT =   412040832.0000             TOTAL OUT =      371102.9062

            IN - OUT =      452256.0000              IN - OUT =         999.0938

 PERCENT DISCREPANCY =           0.11     PERCENT DISCREPANCY =           0.27






         TIME SUMMARY AT END OF TIME STEP   10 IN STRESS PERIOD   21
                    SECONDS     MINUTES      HOURS       DAYS        YEARS
                    -----------------------------------------------------------
   TIME STEP LENGTH 2.62656E+05  4377.6      72.960      3.0400     8.32307E-03
 STRESS PERIOD TIME 2.62656E+06  43776.      729.60      30.400     8.32307E-02
         TOTAL TIME 5.51577E+07 9.19295E+05  15322.      638.40      1.7478    
1
1
                            STRESS PERIOD NO.   22, LENGTH =   30.40000    
                            -----------------------------------------------

                              NUMBER OF TIME STEPS =    10

                               MULTIPLIER FOR DELT =     1.000

                            INITIAL TIME STEP SIZE =   3.040000    

 WELL NO.  LAYER   ROW   COL   STRESS RATE         
 --------------------------------------------------
      1      1     69    225      -1814.    
      2      1     71    224      -6048.    
      3      1     74    220      -6134.    
      4      1     73    220       0.000    
      5      1     71    223      -6221.    
      6      1     71    223      -7344.    
      7      1     72    223      -6394.    
      8      1     92    173      -6653.    
      9      1     94    174      -5875.    
     10      1     93    175       0.000    
     11      1    203    328      -5875.    
     12      1    438    460      -3007.    
     13      1    436    461      -3007.    
     14      1    410    454      -3007.    
     15      1    433    460      -3007.    
     16      1    431    462      -3007.    
     17      1    417    459      -3007.    
     18      1    418    458      -3007.    
     19      1    414    455      -3007.    
     20      1    443    464      -3007.    
     21      1    379    425      -3007.    
     22      1    362    405      -3007.    
     23      1    361    405      -3007.    
     24      1    362    406      -3007.    
     25      1    363    408      -3007.    
     26      1    364    410      -3007.    
     27      1    369    418      -3007.    
     28      1    367    417      -3007.    
     29      1    365    415      -3007.    
     30      1    402    447      -3007.    
     31      1    400    446      -3007.    
     32      1    392    444      -3007.    
     33      1    391    441      -3007.    
     34      1    403    448      -3007.    
     35      1    405    447      -3007.    
     36      1    362    410      -3007.    
     37      1    362    411      -3007.    
     38      1    363    412      -3007.    
     39      1    375    421      -3007.    
     40      1    383    430      -3007.    
     41      1    397    445      -3007.    
     42      1    360    403      -3007.    
     43      1    350    401      -3007.    
     44      1    346    393      -4259.    
     45      1    333    387      -4259.    
     46      1    328    384      -4259.    
     47      1    326    383      -4259.    
     48      1    323    378      -4259.    
     49      1    321    378      -4259.    
     50      1    322    376      -4259.    
     51      1    316    374      -4259.    
     52      1    311    371      -4259.    
     53      1    307    369      -4259.    
     54      1    305    368      -4259.    
     55      1    303    368      -4259.    
     56      1    300    369      -4259.    
     57      1    293    364      -4259.    
     58      1    292    362      -4259.    
     59      1    278    350      -4259.    
     60      1    274    351      -4259.    
     61      1    273    350      -4259.    
     62      1    271    350      -4259.    
     63      1    267    348      -4259.    
     64      1    263    348      -4259.    
     65      1    263    348      -4259.    
     66      1    248    347      -4259.    
     67      1    243    342      -4259.    
     68      1    242    339      -4259.    
     69      1    238    341      -4259.    
     70      1    233    340      -4259.    
     71      1    232    340      -4259.    
     72      1    229    341      -4259.    
     73      1    227    341      -4259.    
     74      1    219    342      -4259.    
     75      1    219    336      -4259.    
     76      1    199    329      -4259.    
     77      1    191    332      -5038.    
     78      1    190    332      -5038.    
     79      1    130    310      -5038.    
     80      1    123    305      -5038.    
     81      1    104    289      -5038.    
     82      1     96    287      -4290.    
     83      1     95    284      -4290.    
     84      1     95    280      -4290.    
     85      1     93    276      -4290.    
     86      1     94    275      -4290.    
     87      1     90    277      -4290.    
     88      1     90    273      -4290.    
     89      1     86    271      -4290.    
     90      1     85    270      -4290.    
     91      1     84    265      -4290.    
     92      1     85    265      -4290.    
     93      1     84    264      -4290.    
     94      1     79    263      -4290.    
     95      1     79    263      -4290.    
     96      1     76    262      -4290.    
     97      1     73    257      -4290.    
     98      1     74    255      -4290.    
     99      1     71    255      -4290.    
    100      1     66    253      -4290.    
    101      1     68    252      -4290.    
    102      1     69    250      -4290.    
    103      1     65    248      -4290.    
    104      1     68    248      -4290.    
    105      1     69    247      -4290.    
    106      1     73    247      -4290.    
    107      1     64    246      -4290.    
    108      1     69    245      -4290.    
    109      1     72    245      -4290.    
    110      1     69    241      -4290.    
    111      1     73    238      -4290.    
    112      1     70    238      -4290.    
    113      1     76    263      -4290.    
    114      1     66    232      -2310.    
    115      1     69    229      -2310.    
    116      1     71    228      -2310.    
    117      1     69    227      -2310.    
    118      1     72    219      -2310.    
    119      1     72    218      -2310.    
    120      1     72    218      -2310.    
    121      1     73    217      -2310.    
    122      1     77    219      -2310.    
    123      1     78    219      -2310.    
    124      1     83    213      -2310.    
    125      1     77    213      -2310.    
    126      1     81    211      -2310.    
    127      1     81    210      -2310.    
    128      1     81    210      -2310.    
    129      1     82    208      -2310.    
    130      1     80    205      -2310.    
    131      1     86    202      -2310.    
    132      1     84    200      -2310.    
    133      1     89    200      -2310.    
    134      1     89    199      -2310.    
    135      1     88    199      -2310.    
    136      1     86    199      -2310.    
    137      1     85    199      -2310.    
    138      1     82    197      -2310.    
    139      1     86    197      -2310.    
    140      1     88    198      -2310.    
    141      1     90    192      -2310.    
    142      1     89    191      -2310.    
    143      1     84    192      -2310.    
    144      1     91    189      -2310.    
    145      1     92    185      -2310.    
    146      1     87    183      -2310.    
    147      1     92    182      -2310.    
    148      1     90    182      -2310.    
    149      1     88    179      -2310.    
    150      1     89    176      -2310.    
    151      1     92    172      -2310.    
    152      1     93    164      -2310.    
    153      1     94    162      -2310.    
    154      1    103    156      -2310.    
    155      1    103    156      -2310.    
    156      1     96    154      -2310.    
    157      1     97    153      -2310.    
    158      1    122    139      -2310.    
    159      1     92     77      -2310.    
    160      1     94     77      -2310.    
    161      1     94     73      -2310.    
    162      1     97    152      -2310.    
    163      1    118    337      -666.7    
    164      1    133    319      -2678.    
    165      1    131    320      -3951.    
    166      1    133    321      -2956.    
    167      1    161    329      -2141.    
    168      1    178    330      -551.0    
    169      1    163    330      -1122.    
    170      1    131    320      -2473.    
    171      1    129    315      -3937.    
    172      1    162    329      -1959.    
    173      1    131    311      -826.1    
    174      1    221    340      -1994.    
    175      1    220    340      -1034.    
    176      1    221    340      -667.7    
    177      1    137    322      -2082.    
    178      1    137    321      -1407.    
    179      1    185    329      -2012.    
    180      1    183    329      -1473.    
    181      1    175    329      -585.3    
    182      1     79    243      -1490.    
    183      1     77    245      -2414.    
    184      1    199    329      -1617.    
    185      1    198    330      -2514.    
    186      1    140    328      -972.1    
    187      1    143    327      -863.6    
    188      1    139    327      -1331.    

    188 WELLS

 REUSING NON-PARAMETER DRAINS FROM LAST STRESS PERIOD

   1061 DRAINS

 REUSING SURF FROM LAST STRESS PERIOD

 REUSING EVTR FROM LAST STRESS PERIOD

 REUSING EXDP FROM LAST STRESS PERIOD



                           RECHARGE
 READING ON UNIT   19 WITH FORMAT: (510E15.6)          

 SOLVING FOR HEAD 
                                                   Max.-Head-Change                        Max.-Flux-Residual
  Residual-Control   Outer-Iter.   Inner-Iter.     Column Row Layer    Max.-Head-Change    Column Row Layer    Max.-Flux-Residual            L2-New               L2-Old           Solver-Max-Delh
          0                 1           3           263   79     1      -0.1773212056E+02     348  263    1      -0.7036185407E+04      0.3204358540E+05      0.4420312314E+03     -0.1773212056E+02
          0                 2           2           263   79     1       0.1368401602E+01     348  263    1       0.6358481090E+03      0.3139566245E+04      0.3204358540E+05      0.1368401602E+01
          0                 3           2           263   79     1       0.6700818558E-01     341  233    1       0.3565320262E+02      0.1618211818E+03      0.3139566245E+04      0.6700818558E-01

    ------------------------------------------------
       NWT REQUIRED            3 OUTER ITERATIONS 
       AND A TOTAL OF          7 INNER ITERATIONS.
    ------------------------------------------------

 NO OUTPUT CONTROL FOR STRESS PERIOD   22   TIME STEP    1

 WELLS WITH REDUCED PUMPING FOR STRESS PERIOD    22 TIME STEP     1
   LAY   ROW   COL         APPL.Q          ACT.Q        GW-HEAD       CELL-BOT
     1    92    77  -0.230952E+04  -0.965101E+03  -0.822732E+02  -0.930000E+02


 SOLVING FOR HEAD 
                                                   Max.-Head-Change                        Max.-Flux-Residual
  Residual-Control   Outer-Iter.   Inner-Iter.     Column Row Layer    Max.-Head-Change    Column Row Layer    Max.-Flux-Residual            L2-New               L2-Old           Solver-Max-Delh
          0                 1           3           263   79     1      -0.7116431814E+01     374  316    1      -0.3012804513E+04      0.1565682000E+05      0.1618211818E+03     -0.7116431814E+01
          0                 2           3           263   79     1       0.5757899563E+00     374  316    1       0.3009864686E+03      0.1556812961E+04      0.1565682000E+05      0.5757899563E+00
          0                 3           2           457  456     1       0.5721977433E-01     374  316    1       0.1504712495E+02      0.7777388095E+02      0.1556812961E+04      0.5721977433E-01

    ------------------------------------------------
       NWT REQUIRED            3 OUTER ITERATIONS 
       AND A TOTAL OF          8 INNER ITERATIONS.
    ------------------------------------------------

 NO OUTPUT CONTROL FOR STRESS PERIOD   22   TIME STEP    2

 WELLS WITH REDUCED PUMPING FOR STRESS PERIOD    22 TIME STEP     2
   LAY   ROW   COL         APPL.Q          ACT.Q        GW-HEAD       CELL-BOT
     1    92    77  -0.230952E+04  -0.726609E+03  -0.839920E+02  -0.930000E+02


 SOLVING FOR HEAD 
                                                   Max.-Head-Change                        Max.-Flux-Residual
  Residual-Control   Outer-Iter.   Inner-Iter.     Column Row Layer    Max.-Head-Change    Column Row Layer    Max.-Flux-Residual            L2-New               L2-Old           Solver-Max-Delh
          0                 1           3           263   79     1      -0.3203825026E+01     374  316    1      -0.2685458415E+04      0.1281700342E+05      0.7777388095E+02     -0.3203825026E+01
          0                 2           2           263   79     1       0.2668753885E+00     374  316    1       0.2682649964E+03      0.1280335804E+04      0.1281700342E+05      0.2668753885E+00
          0                 3           2           457  456     1       0.5748017714E-01     374  316    1       0.1341115279E+02      0.6410321020E+02      0.1280335804E+04      0.5748017714E-01

    ------------------------------------------------
       NWT REQUIRED            3 OUTER ITERATIONS 
       AND A TOTAL OF          7 INNER ITERATIONS.
    ------------------------------------------------

 NO OUTPUT CONTROL FOR STRESS PERIOD   22   TIME STEP    3

 WELLS WITH REDUCED PUMPING FOR STRESS PERIOD    22 TIME STEP     3
   LAY   ROW   COL         APPL.Q          ACT.Q        GW-HEAD       CELL-BOT
     1    92    77  -0.230952E+04  -0.614218E+03  -0.848450E+02  -0.930000E+02


 SOLVING FOR HEAD 
                                                   Max.-Head-Change                        Max.-Flux-Residual
  Residual-Control   Outer-Iter.   Inner-Iter.     Column Row Layer    Max.-Head-Change    Column Row Layer    Max.-Flux-Residual            L2-New               L2-Old           Solver-Max-Delh
          0                 1           3           263   79     1      -0.1665486748E+01     378  321    1      -0.2402777372E+04      0.1155021068E+05      0.6410321020E+02     -0.1665486748E+01
          0                 2           2           263   79     1       0.1409722367E+00     378  321    1       0.2400126809E+03      0.1159321908E+04      0.1155021068E+05      0.1409722367E+00
          0                 3           2           457  456     1       0.5773802189E-01     378  321    1       0.1199865215E+02      0.5796046656E+02      0.1159321908E+04      0.5773802189E-01

    ------------------------------------------------
       NWT REQUIRED            3 OUTER ITERATIONS 
       AND A TOTAL OF          7 INNER ITERATIONS.
    ------------------------------------------------

 NO OUTPUT CONTROL FOR STRESS PERIOD   22   TIME STEP    4

 WELLS WITH REDUCED PUMPING FOR STRESS PERIOD    22 TIME STEP     4
   LAY   ROW   COL         APPL.Q          ACT.Q        GW-HEAD       CELL-BOT
     1    92    77  -0.230952E+04  -0.559482E+03  -0.852761E+02  -0.930000E+02


 SOLVING FOR HEAD 
                                                   Max.-Head-Change                        Max.-Flux-Residual
  Residual-Control   Outer-Iter.   Inner-Iter.     Column Row Layer    Max.-Head-Change    Column Row Layer    Max.-Flux-Residual            L2-New               L2-Old           Solver-Max-Delh
          0                 1           3           263   78     1      -0.1055843966E+01     378  321    1      -0.2189142242E+04      0.1081326630E+05      0.5796046656E+02     -0.1055843966E+01
          0                 2           2           263   78     1       0.9014410973E-01     378  321    1       0.2186594149E+03      0.1081628465E+04      0.1081326630E+05      0.9014410973E-01

    ------------------------------------------------
       NWT REQUIRED            2 OUTER ITERATIONS 
       AND A TOTAL OF          5 INNER ITERATIONS.
    ------------------------------------------------

 NO OUTPUT CONTROL FOR STRESS PERIOD   22   TIME STEP    5

 WELLS WITH REDUCED PUMPING FOR STRESS PERIOD    22 TIME STEP     5
   LAY   ROW   COL         APPL.Q          ACT.Q        GW-HEAD       CELL-BOT
     1    92    77  -0.230952E+04  -0.531990E+03  -0.854974E+02  -0.930000E+02


 SOLVING FOR HEAD 
                                                   Max.-Head-Change                        Max.-Flux-Residual
  Residual-Control   Outer-Iter.   Inner-Iter.     Column Row Layer    Max.-Head-Change    Column Row Layer    Max.-Flux-Residual            L2-New               L2-Old           Solver-Max-Delh
          0                 1           3           264   78     1      -0.8921389348E+00      77   94    1      -0.2053063088E+04      0.1032200208E+05      0.5475687018E+02     -0.8921389348E+00
          0                 2           2           264   78     1       0.7593843508E-01      77   94    1       0.2052101929E+03      0.1054662233E+04      0.1032200208E+05      0.7593843508E-01

    ------------------------------------------------
       NWT REQUIRED            2 OUTER ITERATIONS 
       AND A TOTAL OF          5 INNER ITERATIONS.
    ------------------------------------------------

 NO OUTPUT CONTROL FOR STRESS PERIOD   22   TIME STEP    6

 WELLS WITH REDUCED PUMPING FOR STRESS PERIOD    22 TIME STEP     6
   LAY   ROW   COL         APPL.Q          ACT.Q        GW-HEAD       CELL-BOT
     1    92    77  -0.230952E+04  -0.518059E+03  -0.856109E+02  -0.930000E+02


 SOLVING FOR HEAD 
                                                   Max.-Head-Change                        Max.-Flux-Residual
  Residual-Control   Outer-Iter.   Inner-Iter.     Column Row Layer    Max.-Head-Change    Column Row Layer    Max.-Flux-Residual            L2-New               L2-Old           Solver-Max-Delh
          0                 1           3            77   94     1      -0.8530207648E+00      77   94    1      -0.2051490172E+04      0.9967925119E+04      0.5272830703E+02     -0.8530207648E+00
          0                 2           2            77   94     1       0.7364177359E-01      77   94    1       0.2050530393E+03      0.1004597384E+04      0.9967925119E+04      0.7364177359E-01

    ------------------------------------------------
       NWT REQUIRED            2 OUTER ITERATIONS 
       AND A TOTAL OF          5 INNER ITERATIONS.
    ------------------------------------------------

 NO OUTPUT CONTROL FOR STRESS PERIOD   22   TIME STEP    7

 WELLS WITH REDUCED PUMPING FOR STRESS PERIOD    22 TIME STEP     7
   LAY   ROW   COL         APPL.Q          ACT.Q        GW-HEAD       CELL-BOT
     1    92    77  -0.230952E+04  -0.510909E+03  -0.856695E+02  -0.930000E+02


 SOLVING FOR HEAD 
                                                   Max.-Head-Change                        Max.-Flux-Residual
  Residual-Control   Outer-Iter.   Inner-Iter.     Column Row Layer    Max.-Head-Change    Column Row Layer    Max.-Flux-Residual            L2-New               L2-Old           Solver-Max-Delh
          0                 1           3            77   94     1      -0.8524009648E+00      77   94    1      -0.2049919255E+04      0.9700903183E+04      0.5022742015E+02     -0.8524009648E+00
          0                 2           2            77   94     1       0.7358828499E-01      77   94    1       0.2048960855E+03      0.9697711288E+03      0.9700903183E+04      0.7358828499E-01

    ------------------------------------------------
       NWT REQUIRED            2 OUTER ITERATIONS 
       AND A TOTAL OF          5 INNER ITERATIONS.
    ------------------------------------------------

 NO OUTPUT CONTROL FOR STRESS PERIOD   22   TIME STEP    8

 WELLS WITH REDUCED PUMPING FOR STRESS PERIOD    22 TIME STEP     8
   LAY   ROW   COL         APPL.Q          ACT.Q        GW-HEAD       CELL-BOT
     1    92    77  -0.230952E+04  -0.507192E+03  -0.857001E+02  -0.930000E+02


 SOLVING FOR HEAD 
                                                   Max.-Head-Change                        Max.-Flux-Residual
  Residual-Control   Outer-Iter.   Inner-Iter.     Column Row Layer    Max.-Head-Change    Column Row Layer    Max.-Flux-Residual            L2-New               L2-Old           Solver-Max-Delh
          0                 1           3            77   94     1      -0.8517819205E+00      77   94    1      -0.2048350331E+04      0.9492986606E+04      0.4848644979E+02     -0.8517819205E+00
          0                 2           2            77   94     1       0.7353486159E-01      77   94    1       0.2047393309E+03      0.9541612351E+03      0.9492986606E+04      0.7353486159E-01

    ------------------------------------------------
       NWT REQUIRED            2 OUTER ITERATIONS 
       AND A TOTAL OF          5 INNER ITERATIONS.
    ------------------------------------------------

 NO OUTPUT CONTROL FOR STRESS PERIOD   22   TIME STEP    9

 WELLS WITH REDUCED PUMPING FOR STRESS PERIOD    22 TIME STEP     9
   LAY   ROW   COL         APPL.Q          ACT.Q        GW-HEAD       CELL-BOT
     1    92    77  -0.230952E+04  -0.505224E+03  -0.857164E+02  -0.930000E+02


 SOLVING FOR HEAD 
                                                   Max.-Head-Change                        Max.-Flux-Residual
  Residual-Control   Outer-Iter.   Inner-Iter.     Column Row Layer    Max.-Head-Change    Column Row Layer    Max.-Flux-Residual            L2-New               L2-Old           Solver-Max-Delh
          0                 1           3            77   94     1      -0.8511636323E+00      77   94    1      -0.2046783400E+04      0.9326264508E+04      0.4770606059E+02     -0.8511636323E+00
          0                 2           2            77   94     1       0.7348150321E-01      77   94    1       0.2045827752E+03      0.9335705367E+03      0.9326264508E+04      0.7348150321E-01

    ------------------------------------------------
       NWT REQUIRED            2 OUTER ITERATIONS 
       AND A TOTAL OF          5 INNER ITERATIONS.
    ------------------------------------------------

 OUTPUT CONTROL FOR STRESS PERIOD   22   TIME STEP   10
    SAVE HEAD FOR ALL LAYERS

 WELLS WITH REDUCED PUMPING FOR STRESS PERIOD    22 TIME STEP    10
   LAY   ROW   COL         APPL.Q          ACT.Q        GW-HEAD       CELL-BOT
     1    92    77  -0.230952E+04  -0.504151E+03  -0.857252E+02  -0.930000E+02


 HEAD WILL BE SAVED ON UNIT   51 AT END OF TIME STEP   10, STRESS PERIOD   22
1
  VOLUMETRIC BUDGET FOR ENTIRE MODEL AT END OF TIME STEP   10, STRESS PERIOD  22
  ------------------------------------------------------------------------------

     CUMULATIVE VOLUMES      L**3       RATES FOR THIS TIME STEP      L**3/T
     ------------------                 ------------------------

           IN:                                      IN:
           ---                                      ---
             STORAGE =   300420960.0000               STORAGE =      489835.5625
       CONSTANT HEAD =    32788194.0000         CONSTANT HEAD =       51076.0586
               WELLS =           0.0000                 WELLS =           0.0000
              DRAINS =           0.0000                DRAINS =           0.0000
                  ET =           0.0000                    ET =           0.0000
            RECHARGE =   100195416.0000              RECHARGE =      138654.0625

            TOTAL IN =   433404576.0000              TOTAL IN =      679565.6875

          OUT:                                     OUT:
          ----                                     ----
             STORAGE =    96748320.0000               STORAGE =       20724.9082
       CONSTANT HEAD =           0.0000         CONSTANT HEAD =           0.0000
               WELLS =   229244192.0000                 WELLS =      532985.3750
              DRAINS =    72746040.0000                DRAINS =       89564.3750
                  ET =    34087312.0000                    ET =       33950.3906
            RECHARGE =       81860.0000              RECHARGE =           0.0000

           TOTAL OUT =   432907712.0000             TOTAL OUT =      677225.0625

            IN - OUT =      496864.0000              IN - OUT =        2340.6250

 PERCENT DISCREPANCY =           0.11     PERCENT DISCREPANCY =           0.35






         TIME SUMMARY AT END OF TIME STEP   10 IN STRESS PERIOD   22
                    SECONDS     MINUTES      HOURS       DAYS        YEARS
                    -----------------------------------------------------------
   TIME STEP LENGTH 2.62656E+05  4377.6      72.960      3.0400     8.32307E-03
 STRESS PERIOD TIME 2.62656E+06  43776.      729.60      30.400     8.32307E-02
         TOTAL TIME 5.77843E+07 9.63071E+05  16051.      668.80      1.8311    
1
1
                            STRESS PERIOD NO.   23, LENGTH =   30.40000    
                            -----------------------------------------------

                              NUMBER OF TIME STEPS =    10

                               MULTIPLIER FOR DELT =     1.000

                            INITIAL TIME STEP SIZE =   3.040000    

 WELL NO.  LAYER   ROW   COL   STRESS RATE         
 --------------------------------------------------
      1      1     69    225      -1901.    
      2      1     71    224      -6048.    
      3      1     74    220      -6134.    
      4      1     73    220       0.000    
      5      1     71    223      -6221.    
      6      1     71    223      -7344.    
      7      1     72    223      -6394.    
      8      1     92    173      -6653.    
      9      1     94    174      -5875.    
     10      1     93    175       0.000    
     11      1    203    328      -5875.    
     12      1    438    460      -2502.    
     13      1    436    461      -2502.    
     14      1    410    454      -2502.    
     15      1    433    460      -2502.    
     16      1    431    462      -2502.    
     17      1    417    459      -2502.    
     18      1    418    458      -2502.    
     19      1    414    455      -2502.    
     20      1    443    464      -2502.    
     21      1    379    425      -2502.    
     22      1    362    405      -2502.    
     23      1    361    405      -2502.    
     24      1    362    406      -2502.    
     25      1    363    408      -2502.    
     26      1    364    410      -2502.    
     27      1    369    418      -2502.    
     28      1    367    417      -2502.    
     29      1    365    415      -2502.    
     30      1    402    447      -2502.    
     31      1    400    446      -2502.    
     32      1    392    444      -2502.    
     33      1    391    441      -2502.    
     34      1    403    448      -2502.    
     35      1    405    447      -2502.    
     36      1    362    410      -2502.    
     37      1    362    411      -2502.    
     38      1    363    412      -2502.    
     39      1    375    421      -2502.    
     40      1    383    430      -2502.    
     41      1    397    445      -2502.    
     42      1    360    403      -2502.    
     43      1    350    401      -2502.    
     44      1    346    393      -3479.    
     45      1    333    387      -3479.    
     46      1    328    384      -3479.    
     47      1    326    383      -3479.    
     48      1    323    378      -3479.    
     49      1    321    378      -3479.    
     50      1    322    376      -3479.    
     51      1    316    374      -3479.    
     52      1    311    371      -3479.    
     53      1    307    369      -3479.    
     54      1    305    368      -3479.    
     55      1    303    368      -3479.    
     56      1    300    369      -3479.    
     57      1    293    364      -3479.    
     58      1    292    362      -3479.    
     59      1    278    350      -3479.    
     60      1    274    351      -3479.    
     61      1    273    350      -3479.    
     62      1    271    350      -3479.    
     63      1    267    348      -3479.    
     64      1    263    348      -3479.    
     65      1    263    348      -3479.    
     66      1    248    347      -3479.    
     67      1    243    342      -3479.    
     68      1    242    339      -3479.    
     69      1    238    341      -3479.    
     70      1    233    340      -3479.    
     71      1    232    340      -3479.    
     72      1    229    341      -3479.    
     73      1    227    341      -3479.    
     74      1    219    342      -3479.    
     75      1    219    336      -3479.    
     76      1    199    329      -3479.    
     77      1    191    332      -4456.    
     78      1    190    332      -4456.    
     79      1    130    310      -4456.    
     80      1    123    305      -4456.    
     81      1    104    289      -4456.    
     82      1     96    287      -3788.    
     83      1     95    284      -3788.    
     84      1     95    280      -3788.    
     85      1     93    276      -3788.    
     86      1     94    275      -3788.    
     87      1     90    277      -3788.    
     88      1     90    273      -3788.    
     89      1     86    271      -3788.    
     90      1     85    270      -3788.    
     91      1     84    265      -3788.    
     92      1     85    265      -3788.    
     93      1     84    264      -3788.    
     94      1     79    263      -3788.    
     95      1     79    263      -3788.    
     96      1     76    262      -3788.    
     97      1     73    257      -3788.    
     98      1     74    255      -3788.    
     99      1     71    255      -3788.    
    100      1     66    253      -3788.    
    101      1     68    252      -3788.    
    102      1     69    250      -3788.    
    103      1     65    248      -3788.    
    104      1     68    248      -3788.    
    105      1     69    247      -3788.    
    106      1     73    247      -3788.    
    107      1     64    246      -3788.    
    108      1     69    245      -3788.    
    109      1     72    245      -3788.    
    110      1     69    241      -3788.    
    111      1     73    238      -3788.    
    112      1     70    238      -3788.    
    113      1     76    263      -3788.    
    114      1     66    232      -2343.    
    115      1     69    229      -2343.    
    116      1     71    228      -2343.    
    117      1     69    227      -2343.    
    118      1     72    219      -2343.    
    119      1     72    218      -2343.    
    120      1     72    218      -2343.    
    121      1     73    217      -2343.    
    122      1     77    219      -2343.    
    123      1     78    219      -2343.    
    124      1     83    213      -2343.    
    125      1     77    213      -2343.    
    126      1     81    211      -2343.    
    127      1     81    210      -2343.    
    128      1     81    210      -2343.    
    129      1     82    208      -2343.    
    130      1     80    205      -2343.    
    131      1     86    202      -2343.    
    132      1     84    200      -2343.    
    133      1     89    200      -2343.    
    134      1     89    199      -2343.    
    135      1     88    199      -2343.    
    136      1     86    199      -2343.    
    137      1     85    199      -2343.    
    138      1     82    197      -2343.    
    139      1     86    197      -2343.    
    140      1     88    198      -2343.    
    141      1     90    192      -2343.    
    142      1     89    191      -2343.    
    143      1     84    192      -2343.    
    144      1     91    189      -2343.    
    145      1     92    185      -2343.    
    146      1     87    183      -2343.    
    147      1     92    182      -2343.    
    148      1     90    182      -2343.    
    149      1     88    179      -2343.    
    150      1     89    176      -2343.    
    151      1     92    172      -2343.    
    152      1     93    164      -2343.    
    153      1     94    162      -2343.    
    154      1    103    156      -2343.    
    155      1    103    156      -2343.    
    156      1     96    154      -2343.    
    157      1     97    153      -2343.    
    158      1    122    139      -2343.    
    159      1     92     77      -2343.    
    160      1     94     77      -2343.    
    161      1     94     73      -2343.    
    162      1     97    152      -2343.    
    163      1    118    337      -666.7    
    164      1    133    319      -2678.    
    165      1    131    320      -3951.    
    166      1    133    321      -2956.    
    167      1    161    329      -2141.    
    168      1    178    330      -551.0    
    169      1    163    330      -1122.    
    170      1    131    320      -2473.    
    171      1    129    315      -3937.    
    172      1    162    329      -1959.    
    173      1    131    311      -826.1    
    174      1    221    340      -1994.    
    175      1    220    340      -1034.    
    176      1    221    340      -667.7    
    177      1    137    322      -2082.    
    178      1    137    321      -1407.    
    179      1    185    329      -2012.    
    180      1    183    329      -1473.    
    181      1    175    329      -585.3    
    182      1     79    243      -1490.    
    183      1     77    245      -2414.    
    184      1    199    329      -1617.    
    185      1    198    330      -2514.    
    186      1    140    328      -972.1    
    187      1    143    327      -863.6    
    188      1    139    327      -1331.    

    188 WELLS

 REUSING NON-PARAMETER DRAINS FROM LAST STRESS PERIOD

   1061 DRAINS

 REUSING SURF FROM LAST STRESS PERIOD

 REUSING EVTR FROM LAST STRESS PERIOD

 REUSING EXDP FROM LAST STRESS PERIOD



                           RECHARGE
 READING ON UNIT   19 WITH FORMAT: (510E15.6)          

 SOLVING FOR HEAD 
                                                   Max.-Head-Change                        Max.-Flux-Residual
  Residual-Control   Outer-Iter.   Inner-Iter.     Column Row Layer    Max.-Head-Change    Column Row Layer    Max.-Flux-Residual            L2-New               L2-Old           Solver-Max-Delh
          0                 1           3           263   79     1       0.2576468957E+01      77   94    1      -0.2078617955E+04      0.9614151566E+04      0.4667976607E+02      0.2576468957E+01
          0                 2           2           263   79     1      -0.2234236326E+00      77   94    1       0.2077632351E+03      0.9620130917E+03      0.9614151566E+04     -0.2234236326E+00
          0                 3           2           457  456     1       0.6044807484E-01      77   94    1       0.1038741976E+02      0.4809628300E+02      0.9620130917E+03      0.6044807484E-01

    ------------------------------------------------
       NWT REQUIRED            3 OUTER ITERATIONS 
       AND A TOTAL OF          7 INNER ITERATIONS.
    ------------------------------------------------

 NO OUTPUT CONTROL FOR STRESS PERIOD   23   TIME STEP    1

 WELLS WITH REDUCED PUMPING FOR STRESS PERIOD    23 TIME STEP     1
   LAY   ROW   COL         APPL.Q          ACT.Q        GW-HEAD       CELL-BOT
     1    92    77  -0.234339E+04  -0.507642E+03  -0.857570E+02  -0.930000E+02


 SOLVING FOR HEAD 
                                                   Max.-Head-Change                        Max.-Flux-Residual
  Residual-Control   Outer-Iter.   Inner-Iter.     Column Row Layer    Max.-Head-Change    Column Row Layer    Max.-Flux-Residual            L2-New               L2-Old           Solver-Max-Delh
          0                 1           3           263   79     1       0.8800045589E+00      77   94    1      -0.2077035140E+04      0.8100680772E+04      0.4809628300E+02      0.8800045589E+00
          0                 2           2           263   79     1      -0.7588005259E-01      77   94    1       0.2076050928E+03      0.8100426731E+03      0.8100680772E+04     -0.7588005259E-01

    ------------------------------------------------
       NWT REQUIRED            2 OUTER ITERATIONS 
       AND A TOTAL OF          5 INNER ITERATIONS.
    ------------------------------------------------

 NO OUTPUT CONTROL FOR STRESS PERIOD   23   TIME STEP    2

 WELLS WITH REDUCED PUMPING FOR STRESS PERIOD    23 TIME STEP     2
   LAY   ROW   COL         APPL.Q          ACT.Q        GW-HEAD       CELL-BOT
     1    92    77  -0.234339E+04  -0.505573E+03  -0.857739E+02  -0.930000E+02


 SOLVING FOR HEAD 
                                                   Max.-Head-Change                        Max.-Flux-Residual
  Residual-Control   Outer-Iter.   Inner-Iter.     Column Row Layer    Max.-Head-Change    Column Row Layer    Max.-Flux-Residual            L2-New               L2-Old           Solver-Max-Delh
          0                 1           3            77   94     1      -0.8631847800E+00      77   94    1      -0.2075446814E+04      0.7902606533E+04      0.4050066592E+02     -0.8631847800E+00
          0                 2           2            77   94     1       0.7451889337E-01      77   94    1       0.2074464003E+03      0.7901414384E+03      0.7902606533E+04      0.7451889337E-01

    ------------------------------------------------
       NWT REQUIRED            2 OUTER ITERATIONS 
       AND A TOTAL OF          5 INNER ITERATIONS.
    ------------------------------------------------

 NO OUTPUT CONTROL FOR STRESS PERIOD   23   TIME STEP    3

 WELLS WITH REDUCED PUMPING FOR STRESS PERIOD    23 TIME STEP     3
   LAY   ROW   COL         APPL.Q          ACT.Q        GW-HEAD       CELL-BOT
     1    92    77  -0.234339E+04  -0.504456E+03  -0.857830E+02  -0.930000E+02


 SOLVING FOR HEAD 
                                                   Max.-Head-Change                        Max.-Flux-Residual
  Residual-Control   Outer-Iter.   Inner-Iter.     Column Row Layer    Max.-Head-Change    Column Row Layer    Max.-Flux-Residual            L2-New               L2-Old           Solver-Max-Delh
          0                 1           3            77   94     1      -0.8625592477E+00      77   94    1      -0.2073860542E+04      0.7814475503E+04      0.3950605117E+02     -0.8625592477E+00
          0                 2           2            77   94     1       0.7446490949E-01      77   94    1       0.2072879134E+03      0.7813520332E+03      0.7814475503E+04      0.7446490949E-01

    ------------------------------------------------
       NWT REQUIRED            2 OUTER ITERATIONS 
       AND A TOTAL OF          5 INNER ITERATIONS.
    ------------------------------------------------

 NO OUTPUT CONTROL FOR STRESS PERIOD   23   TIME STEP    4

 WELLS WITH REDUCED PUMPING FOR STRESS PERIOD    23 TIME STEP     4
   LAY   ROW   COL         APPL.Q          ACT.Q        GW-HEAD       CELL-BOT
     1    92    77  -0.234339E+04  -0.503824E+03  -0.857882E+02  -0.930000E+02


 SOLVING FOR HEAD 
                                                   Max.-Head-Change                        Max.-Flux-Residual
  Residual-Control   Outer-Iter.   Inner-Iter.     Column Row Layer    Max.-Head-Change    Column Row Layer    Max.-Flux-Residual            L2-New               L2-Old           Solver-Max-Delh
          0                 1           3            77   94     1      -0.8619344708E+00      77   94    1      -0.2072276263E+04      0.7758603007E+04      0.3906674990E+02     -0.8619344708E+00
          0                 2           2            77   94     1       0.7441099090E-01      77   94    1       0.2071296257E+03      0.7785420906E+03      0.7758603007E+04      0.7441099090E-01

    ------------------------------------------------
       NWT REQUIRED            2 OUTER ITERATIONS 
       AND A TOTAL OF          5 INNER ITERATIONS.
    ------------------------------------------------

 NO OUTPUT CONTROL FOR STRESS PERIOD   23   TIME STEP    5

 WELLS WITH REDUCED PUMPING FOR STRESS PERIOD    23 TIME STEP     5
   LAY   ROW   COL         APPL.Q          ACT.Q        GW-HEAD       CELL-BOT
     1    92    77  -0.234339E+04  -0.503439E+03  -0.857913E+02  -0.930000E+02


 SOLVING FOR HEAD 
                                                   Max.-Head-Change                        Max.-Flux-Residual
  Residual-Control   Outer-Iter.   Inner-Iter.     Column Row Layer    Max.-Head-Change    Column Row Layer    Max.-Flux-Residual            L2-New               L2-Old           Solver-Max-Delh
          0                 1           3            77   94     1      -0.8613104640E+00      77   94    1      -0.2070694010E+04      0.7716151477E+04      0.3892622278E+02     -0.8613104640E+00
          0                 2           2            77   94     1       0.7435713933E-01      77   94    1       0.2069715408E+03      0.7715126351E+03      0.7716151477E+04      0.7435713933E-01

    ------------------------------------------------
       NWT REQUIRED            2 OUTER ITERATIONS 
       AND A TOTAL OF          5 INNER ITERATIONS.
    ------------------------------------------------

 NO OUTPUT CONTROL FOR STRESS PERIOD   23   TIME STEP    6

 WELLS WITH REDUCED PUMPING FOR STRESS PERIOD    23 TIME STEP     6
   LAY   ROW   COL         APPL.Q          ACT.Q        GW-HEAD       CELL-BOT
     1    92    77  -0.234339E+04  -0.503179E+03  -0.857934E+02  -0.930000E+02


 SOLVING FOR HEAD 
                                                   Max.-Head-Change                        Max.-Flux-Residual
  Residual-Control   Outer-Iter.   Inner-Iter.     Column Row Layer    Max.-Head-Change    Column Row Layer    Max.-Flux-Residual            L2-New               L2-Old           Solver-Max-Delh
          0                 1           3            77   94     1      -0.8606872240E+00      77   94    1      -0.2069113775E+04      0.7681164673E+04      0.3857491503E+02     -0.8606872240E+00
          0                 2           2            77   94     1       0.7430335371E-01      77   94    1       0.2068136573E+03      0.7701902315E+03      0.7681164673E+04      0.7430335371E-01

    ------------------------------------------------
       NWT REQUIRED            2 OUTER ITERATIONS 
       AND A TOTAL OF          5 INNER ITERATIONS.
    ------------------------------------------------

 NO OUTPUT CONTROL FOR STRESS PERIOD   23   TIME STEP    7

 WELLS WITH REDUCED PUMPING FOR STRESS PERIOD    23 TIME STEP     7
   LAY   ROW   COL         APPL.Q          ACT.Q        GW-HEAD       CELL-BOT
     1    92    77  -0.234339E+04  -0.502984E+03  -0.857950E+02  -0.930000E+02


 SOLVING FOR HEAD 
                                                   Max.-Head-Change                        Max.-Flux-Residual
  Residual-Control   Outer-Iter.   Inner-Iter.     Column Row Layer    Max.-Head-Change    Column Row Layer    Max.-Flux-Residual            L2-New               L2-Old           Solver-Max-Delh
          0                 1           3            77   94     1      -0.8600647564E+00      77   94    1      -0.2067535571E+04      0.7650494966E+04      0.3850886311E+02     -0.8600647564E+00
          0                 2           2            77   94     1       0.7424963494E-01      77   94    1       0.2066559768E+03      0.7649564053E+03      0.7650494966E+04      0.7424963494E-01

    ------------------------------------------------
       NWT REQUIRED            2 OUTER ITERATIONS 
       AND A TOTAL OF          5 INNER ITERATIONS.
    ------------------------------------------------

 NO OUTPUT CONTROL FOR STRESS PERIOD   23   TIME STEP    8

 WELLS WITH REDUCED PUMPING FOR STRESS PERIOD    23 TIME STEP     8
   LAY   ROW   COL         APPL.Q          ACT.Q        GW-HEAD       CELL-BOT
     1    92    77  -0.234339E+04  -0.502821E+03  -0.857964E+02  -0.930000E+02


 SOLVING FOR HEAD 
                                                   Max.-Head-Change                        Max.-Flux-Residual
  Residual-Control   Outer-Iter.   Inner-Iter.     Column Row Layer    Max.-Head-Change    Column Row Layer    Max.-Flux-Residual            L2-New               L2-Old           Solver-Max-Delh
          0                 1           3            77   94     1      -0.8594430497E+00      77   94    1      -0.2065959371E+04      0.7623106402E+04      0.3824711809E+02     -0.8594430497E+00
          0                 2           2            77   94     1       0.7419598188E-01      77   94    1       0.2064984963E+03      0.7622157536E+03      0.7623106402E+04      0.7419598188E-01

    ------------------------------------------------
       NWT REQUIRED            2 OUTER ITERATIONS 
       AND A TOTAL OF          5 INNER ITERATIONS.
    ------------------------------------------------

 NO OUTPUT CONTROL FOR STRESS PERIOD   23   TIME STEP    9

 WELLS WITH REDUCED PUMPING FOR STRESS PERIOD    23 TIME STEP     9
   LAY   ROW   COL         APPL.Q          ACT.Q        GW-HEAD       CELL-BOT
     1    92    77  -0.234339E+04  -0.502674E+03  -0.857976E+02  -0.930000E+02


 SOLVING FOR HEAD 
                                                   Max.-Head-Change                        Max.-Flux-Residual
  Residual-Control   Outer-Iter.   Inner-Iter.     Column Row Layer    Max.-Head-Change    Column Row Layer    Max.-Flux-Residual            L2-New               L2-Old           Solver-Max-Delh
          0                 1           3            77   94     1      -0.8588221179E+00      77   94    1      -0.2064385207E+04      0.7598139854E+04      0.3811009542E+02     -0.8588221179E+00
          0                 2           2            77   94     1       0.7414239570E-01      77   94    1       0.2063412193E+03      0.7597201593E+03      0.7598139854E+04      0.7414239570E-01

    ------------------------------------------------
       NWT REQUIRED            2 OUTER ITERATIONS 
       AND A TOTAL OF          5 INNER ITERATIONS.
    ------------------------------------------------

 OUTPUT CONTROL FOR STRESS PERIOD   23   TIME STEP   10
    SAVE HEAD FOR ALL LAYERS

 WELLS WITH REDUCED PUMPING FOR STRESS PERIOD    23 TIME STEP    10
   LAY   ROW   COL         APPL.Q          ACT.Q        GW-HEAD       CELL-BOT
     1    92    77  -0.234339E+04  -0.502535E+03  -0.857987E+02  -0.930000E+02


 HEAD WILL BE SAVED ON UNIT   51 AT END OF TIME STEP   10, STRESS PERIOD   23
1
  VOLUMETRIC BUDGET FOR ENTIRE MODEL AT END OF TIME STEP   10, STRESS PERIOD  23
  ------------------------------------------------------------------------------

     CUMULATIVE VOLUMES      L**3       RATES FOR THIS TIME STEP      L**3/T
     ------------------                 ------------------------

           IN:                                      IN:
           ---                                      ---
             STORAGE =   313205568.0000               STORAGE =      417224.2500
       CONSTANT HEAD =    34342240.0000         CONSTANT HEAD =       51155.2383
               WELLS =           0.0000                 WELLS =           0.0000
              DRAINS =           0.0000                DRAINS =           0.0000
                  ET =           0.0000                    ET =           0.0000
            RECHARGE =   105043176.0000              RECHARGE =      159465.7031

            TOTAL IN =   452590976.0000              TOTAL IN =      627845.1875

          OUT:                                     OUT:
          ----                                     ----
             STORAGE =    97414272.0000               STORAGE =       20644.1699
       CONSTANT HEAD =           0.0000         CONSTANT HEAD =           0.0000
               WELLS =   244046208.0000                 WELLS =      486907.4375
              DRAINS =    75405224.0000                DRAINS =       85983.0391
                  ET =    35091948.0000                    ET =       32335.3359
            RECHARGE =       81860.0000              RECHARGE =           0.0000

           TOTAL OUT =   452039488.0000             TOTAL OUT =      625869.9375

            IN - OUT =      551488.0000              IN - OUT =        1975.2500

 PERCENT DISCREPANCY =           0.12     PERCENT DISCREPANCY =           0.32






         TIME SUMMARY AT END OF TIME STEP   10 IN STRESS PERIOD   23
                    SECONDS     MINUTES      HOURS       DAYS        YEARS
                    -----------------------------------------------------------
   TIME STEP LENGTH 2.62656E+05  4377.6      72.960      3.0400     8.32307E-03
 STRESS PERIOD TIME 2.62656E+06  43776.      729.60      30.400     8.32307E-02
         TOTAL TIME 6.04108E+07 1.00685E+06  16781.      699.20      1.9143    
1
1
                            STRESS PERIOD NO.   24, LENGTH =   30.40000    
                            -----------------------------------------------

                              NUMBER OF TIME STEPS =    10

                               MULTIPLIER FOR DELT =     1.000

                            INITIAL TIME STEP SIZE =   3.040000    

 WELL NO.  LAYER   ROW   COL   STRESS RATE         
 --------------------------------------------------
      1      1     69    225      -1987.    
      2      1     71    224      -6048.    
      3      1     74    220      -6134.    
      4      1     73    220       0.000    
      5      1     71    223      -6221.    
      6      1     71    223      -7344.    
      7      1     72    223      -6394.    
      8      1     92    173      -6653.    
      9      1     94    174      -5875.    
     10      1     93    175       0.000    
     11      1    203    328      -5875.    
     12      1    438    460      -0.000    
     13      1    436    461      -0.000    
     14      1    410    454      -0.000    
     15      1    433    460      -0.000    
     16      1    431    462      -0.000    
     17      1    417    459      -0.000    
     18      1    418    458      -0.000    
     19      1    414    455      -0.000    
     20      1    443    464      -0.000    
     21      1    379    425      -0.000    
     22      1    362    405      -0.000    
     23      1    361    405      -0.000    
     24      1    362    406      -0.000    
     25      1    363    408      -0.000    
     26      1    364    410      -0.000    
     27      1    369    418      -0.000    
     28      1    367    417      -0.000    
     29      1    365    415      -0.000    
     30      1    402    447      -0.000    
     31      1    400    446      -0.000    
     32      1    392    444      -0.000    
     33      1    391    441      -0.000    
     34      1    403    448      -0.000    
     35      1    405    447      -0.000    
     36      1    362    410      -0.000    
     37      1    362    411      -0.000    
     38      1    363    412      -0.000    
     39      1    375    421      -0.000    
     40      1    383    430      -0.000    
     41      1    397    445      -0.000    
     42      1    360    403      -0.000    
     43      1    350    401      -0.000    
     44      1    346    393      -49.88    
     45      1    333    387      -49.88    
     46      1    328    384      -49.88    
     47      1    326    383      -49.88    
     48      1    323    378      -49.88    
     49      1    321    378      -49.88    
     50      1    322    376      -49.88    
     51      1    316    374      -49.88    
     52      1    311    371      -49.88    
     53      1    307    369      -49.88    
     54      1    305    368      -49.88    
     55      1    303    368      -49.88    
     56      1    300    369      -49.88    
     57      1    293    364      -49.88    
     58      1    292    362      -49.88    
     59      1    278    350      -49.88    
     60      1    274    351      -49.88    
     61      1    273    350      -49.88    
     62      1    271    350      -49.88    
     63      1    267    348      -49.88    
     64      1    263    348      -49.88    
     65      1    263    348      -49.88    
     66      1    248    347      -49.88    
     67      1    243    342      -49.88    
     68      1    242    339      -49.88    
     69      1    238    341      -49.88    
     70      1    233    340      -49.88    
     71      1    232    340      -49.88    
     72      1    229    341      -49.88    
     73      1    227    341      -49.88    
     74      1    219    342      -49.88    
     75      1    219    336      -49.88    
     76      1    199    329      -49.88    
     77      1    191    332      -80.44    
     78      1    190    332      -80.44    
     79      1    130    310      -80.44    
     80      1    123    305      -80.44    
     81      1    104    289      -80.44    
     82      1     96    287      -510.6    
     83      1     95    284      -510.6    
     84      1     95    280      -510.6    
     85      1     93    276      -510.6    
     86      1     94    275      -510.6    
     87      1     90    277      -510.6    
     88      1     90    273      -510.6    
     89      1     86    271      -510.6    
     90      1     85    270      -510.6    
     91      1     84    265      -510.6    
     92      1     85    265      -510.6    
     93      1     84    264      -510.6    
     94      1     79    263      -510.6    
     95      1     79    263      -510.6    
     96      1     76    262      -510.6    
     97      1     73    257      -510.6    
     98      1     74    255      -510.6    
     99      1     71    255      -510.6    
    100      1     66    253      -510.6    
    101      1     68    252      -510.6    
    102      1     69    250      -510.6    
    103      1     65    248      -510.6    
    104      1     68    248      -510.6    
    105      1     69    247      -510.6    
    106      1     73    247      -510.6    
    107      1     64    246      -510.6    
    108      1     69    245      -510.6    
    109      1     72    245      -510.6    
    110      1     69    241      -510.6    
    111      1     73    238      -510.6    
    112      1     70    238      -510.6    
    113      1     76    263      -510.6    
    114      1     66    232      -620.9    
    115      1     69    229      -620.9    
    116      1     71    228      -620.9    
    117      1     69    227      -620.9    
    118      1     72    219      -620.9    
    119      1     72    218      -620.9    
    120      1     72    218      -620.9    
    121      1     73    217      -620.9    
    122      1     77    219      -620.9    
    123      1     78    219      -620.9    
    124      1     83    213      -620.9    
    125      1     77    213      -620.9    
    126      1     81    211      -620.9    
    127      1     81    210      -620.9    
    128      1     81    210      -620.9    
    129      1     82    208      -620.9    
    130      1     80    205      -620.9    
    131      1     86    202      -620.9    
    132      1     84    200      -620.9    
    133      1     89    200      -620.9    
    134      1     89    199      -620.9    
    135      1     88    199      -620.9    
    136      1     86    199      -620.9    
    137      1     85    199      -620.9    
    138      1     82    197      -620.9    
    139      1     86    197      -620.9    
    140      1     88    198      -620.9    
    141      1     90    192      -620.9    
    142      1     89    191      -620.9    
    143      1     84    192      -620.9    
    144      1     91    189      -620.9    
    145      1     92    185      -620.9    
    146      1     87    183      -620.9    
    147      1     92    182      -620.9    
    148      1     90    182      -620.9    
    149      1     88    179      -620.9    
    150      1     89    176      -620.9    
    151      1     92    172      -620.9    
    152      1     93    164      -620.9    
    153      1     94    162      -620.9    
    154      1    103    156      -620.9    
    155      1    103    156      -620.9    
    156      1     96    154      -620.9    
    157      1     97    153      -620.9    
    158      1    122    139      -620.9    
    159      1     92     77      -620.9    
    160      1     94     77      -620.9    
    161      1     94     73      -620.9    
    162      1     97    152      -620.9    
    163      1    118    337      -666.7    
    164      1    133    319      -2678.    
    165      1    131    320      -3951.    
    166      1    133    321      -2956.    
    167      1    161    329      -2141.    
    168      1    178    330      -551.0    
    169      1    163    330      -1122.    
    170      1    131    320      -2473.    
    171      1    129    315      -3937.    
    172      1    162    329      -1959.    
    173      1    131    311      -826.1    
    174      1    221    340      -1994.    
    175      1    220    340      -1034.    
    176      1    221    340      -667.7    
    177      1    137    322      -2082.    
    178      1    137    321      -1407.    
    179      1    185    329      -2012.    
    180      1    183    329      -1473.    
    181      1    175    329      -585.3    
    182      1     79    243      -1490.    
    183      1     77    245      -2414.    
    184      1    199    329      -1617.    
    185      1    198    330      -2514.    
    186      1    140    328      -972.1    
    187      1    143    327      -863.6    
    188      1    139    327      -1331.    

    188 WELLS

 REUSING NON-PARAMETER DRAINS FROM LAST STRESS PERIOD

   1061 DRAINS

 REUSING SURF FROM LAST STRESS PERIOD

 REUSING EVTR FROM LAST STRESS PERIOD

 REUSING EXDP FROM LAST STRESS PERIOD



                           RECHARGE
 READING ON UNIT   19 WITH FORMAT: (510E15.6)          

 SOLVING FOR HEAD 
                                                   Max.-Head-Change                        Max.-Flux-Residual
  Residual-Control   Outer-Iter.   Inner-Iter.     Column Row Layer    Max.-Head-Change    Column Row Layer    Max.-Flux-Residual            L2-New               L2-Old           Solver-Max-Delh
          0                 1           3           263   79     1       0.1868777058E+02     348  263    1       0.6753211681E+04      0.3164646886E+05      0.3798532856E+02      0.1868777058E+02
          0                 2           2           263   79     1      -0.1782160229E+01     348  263    1      -0.7768506584E+03      0.3277074330E+04      0.3164646886E+05     -0.1782160229E+01
          0                 3           2           263   79     1      -0.9102629468E-01     348  263    1      -0.3913921338E+02      0.1641046128E+03      0.3277074330E+04     -0.9102629468E-01

    ------------------------------------------------
       NWT REQUIRED            3 OUTER ITERATIONS 
       AND A TOTAL OF          7 INNER ITERATIONS.
    ------------------------------------------------

 NO OUTPUT CONTROL FOR STRESS PERIOD   24   TIME STEP    1

 WELLS WITH REDUCED PUMPING FOR STRESS PERIOD    24 TIME STEP     1
   LAY   ROW   COL         APPL.Q          ACT.Q        GW-HEAD       CELL-BOT
     1    92    77  -0.620891E+03  -0.203191E+03  -0.837760E+02  -0.930000E+02


 SOLVING FOR HEAD 
                                                   Max.-Head-Change                        Max.-Flux-Residual
  Residual-Control   Outer-Iter.   Inner-Iter.     Column Row Layer    Max.-Head-Change    Column Row Layer    Max.-Flux-Residual            L2-New               L2-Old           Solver-Max-Delh
          0                 1           3           263   79     1       0.7348760844E+01     393  346    1       0.2895418013E+04      0.1390345602E+05      0.1641046128E+03      0.7348760844E+01
          0                 2           2           263   79     1      -0.6730161196E+00     393  346    1      -0.2897334494E+03      0.1402332546E+04      0.1390345602E+05     -0.6730161196E+00
          0                 3           2           457  456     1       0.6443728987E-01     393  346    1      -0.1448809573E+02      0.7036019146E+02      0.1402332546E+04      0.6443728987E-01

    ------------------------------------------------
       NWT REQUIRED            3 OUTER ITERATIONS 
       AND A TOTAL OF          7 INNER ITERATIONS.
    ------------------------------------------------

 NO OUTPUT CONTROL FOR STRESS PERIOD   24   TIME STEP    2

 WELLS WITH REDUCED PUMPING FOR STRESS PERIOD    24 TIME STEP     2
   LAY   ROW   COL         APPL.Q          ACT.Q        GW-HEAD       CELL-BOT
     1    92    77  -0.620891E+03  -0.261036E+03  -0.822319E+02  -0.930000E+02


 SOLVING FOR HEAD 
                                                   Max.-Head-Change                        Max.-Flux-Residual
  Residual-Control   Outer-Iter.   Inner-Iter.     Column Row Layer    Max.-Head-Change    Column Row Layer    Max.-Flux-Residual            L2-New               L2-Old           Solver-Max-Delh
          0                 1           3           263   79     1       0.3159626606E+01     393  346    1       0.2515395718E+04      0.1044953055E+05      0.7036019146E+02      0.3159626606E+01
          0                 2           2           263   79     1      -0.2852505971E+00     393  346    1      -0.2517098822E+03      0.1050747850E+04      0.1044953055E+05     -0.2852505971E+00
          0                 3           2           457  456     1       0.6458184021E-01     393  346    1      -0.1258675892E+02      0.5256464492E+02      0.1050747850E+04      0.6458184021E-01

    ------------------------------------------------
       NWT REQUIRED            3 OUTER ITERATIONS 
       AND A TOTAL OF          7 INNER ITERATIONS.
    ------------------------------------------------

 NO OUTPUT CONTROL FOR STRESS PERIOD   24   TIME STEP    3

 WELLS WITH REDUCED PUMPING FOR STRESS PERIOD    24 TIME STEP     3
   LAY   ROW   COL         APPL.Q          ACT.Q        GW-HEAD       CELL-BOT
     1    92    77  -0.620891E+03  -0.306138E+03  -0.810598E+02  -0.930000E+02


 SOLVING FOR HEAD 
                                                   Max.-Head-Change                        Max.-Flux-Residual
  Residual-Control   Outer-Iter.   Inner-Iter.     Column Row Layer    Max.-Head-Change    Column Row Layer    Max.-Flux-Residual            L2-New               L2-Old           Solver-Max-Delh
          0                 1           3           263   79     1       0.1521672376E+01     383  326    1       0.2216126643E+04      0.8793309608E+04      0.5256464492E+02      0.1521672376E+01
          0                 2           2           263   79     1      -0.1333575953E+00     383  326    1      -0.2217578656E+03      0.8833436675E+03      0.8793309608E+04     -0.1333575953E+00
          0                 3           2           457  456     1       0.6471060927E-01     383  326    1      -0.1108897121E+02      0.4417729620E+02      0.8833436675E+03      0.6471060927E-01

    ------------------------------------------------
       NWT REQUIRED            3 OUTER ITERATIONS 
       AND A TOTAL OF          7 INNER ITERATIONS.
    ------------------------------------------------

 NO OUTPUT CONTROL FOR STRESS PERIOD   24   TIME STEP    4

 WELLS WITH REDUCED PUMPING FOR STRESS PERIOD    24 TIME STEP     4
   LAY   ROW   COL         APPL.Q          ACT.Q        GW-HEAD       CELL-BOT
     1    92    77  -0.620891E+03  -0.340451E+03  -0.801707E+02  -0.930000E+02


 SOLVING FOR HEAD 
                                                   Max.-Head-Change                        Max.-Flux-Residual
  Residual-Control   Outer-Iter.   Inner-Iter.     Column Row Layer    Max.-Head-Change    Column Row Layer    Max.-Flux-Residual            L2-New               L2-Old           Solver-Max-Delh
          0                 1           3           264   78     1       0.1057971931E+01     383  326    1       0.1998051766E+04      0.7779335483E+04      0.4417729620E+02      0.1057971931E+01
          0                 2           2           264   78     1      -0.9275327751E-01     383  326    1      -0.1999487735E+03      0.7855756517E+03      0.7779335483E+04     -0.9275327751E-01

    ------------------------------------------------
       NWT REQUIRED            2 OUTER ITERATIONS 
       AND A TOTAL OF          5 INNER ITERATIONS.
    ------------------------------------------------

 NO OUTPUT CONTROL FOR STRESS PERIOD   24   TIME STEP    5

 WELLS WITH REDUCED PUMPING FOR STRESS PERIOD    24 TIME STEP     5
   LAY   ROW   COL         APPL.Q          ACT.Q        GW-HEAD       CELL-BOT
     1    92    77  -0.620891E+03  -0.366437E+03  -0.794921E+02  -0.930000E+02


 SOLVING FOR HEAD 
                                                   Max.-Head-Change                        Max.-Flux-Residual
  Residual-Control   Outer-Iter.   Inner-Iter.     Column Row Layer    Max.-Head-Change    Column Row Layer    Max.-Flux-Residual            L2-New               L2-Old           Solver-Max-Delh
          0                 1           3           264   78     1       0.8700877780E+00     383  326    1       0.1807357634E+04      0.7074652764E+04      0.3895816454E+02      0.8700877780E+00
          0                 2           2           264   78     1      -0.7717697557E-01     383  326    1      -0.1808726768E+03      0.7081310946E+03      0.7074652764E+04     -0.7717697557E-01

    ------------------------------------------------
       NWT REQUIRED            2 OUTER ITERATIONS 
       AND A TOTAL OF          5 INNER ITERATIONS.
    ------------------------------------------------

 NO OUTPUT CONTROL FOR STRESS PERIOD   24   TIME STEP    6

 WELLS WITH REDUCED PUMPING FOR STRESS PERIOD    24 TIME STEP     6
   LAY   ROW   COL         APPL.Q          ACT.Q        GW-HEAD       CELL-BOT
     1    92    77  -0.620891E+03  -0.385952E+03  -0.789766E+02  -0.930000E+02


 SOLVING FOR HEAD 
                                                   Max.-Head-Change                        Max.-Flux-Residual
  Residual-Control   Outer-Iter.   Inner-Iter.     Column Row Layer    Max.-Head-Change    Column Row Layer    Max.-Flux-Residual            L2-New               L2-Old           Solver-Max-Delh
          0                 1           3           343  217     1       0.7645492032E+00     383  326    1       0.1641000901E+04      0.6551933855E+04      0.3718923687E+02      0.7645492032E+00
          0                 2           2           343  217     1      -0.6652412241E-01     383  326    1      -0.1642275889E+03      0.6682633906E+03      0.6551933855E+04     -0.6652412241E-01

    ------------------------------------------------
       NWT REQUIRED            2 OUTER ITERATIONS 
       AND A TOTAL OF          5 INNER ITERATIONS.
    ------------------------------------------------

 NO OUTPUT CONTROL FOR STRESS PERIOD   24   TIME STEP    7

 WELLS WITH REDUCED PUMPING FOR STRESS PERIOD    24 TIME STEP     7
   LAY   ROW   COL         APPL.Q          ACT.Q        GW-HEAD       CELL-BOT
     1    92    77  -0.620891E+03  -0.400621E+03  -0.785842E+02  -0.930000E+02


 SOLVING FOR HEAD 
                                                   Max.-Head-Change                        Max.-Flux-Residual
  Residual-Control   Outer-Iter.   Inner-Iter.     Column Row Layer    Max.-Head-Change    Column Row Layer    Max.-Flux-Residual            L2-New               L2-Old           Solver-Max-Delh
          0                 1           3           343  217     1       0.7193185221E+00     383  326    1       0.1495431732E+04      0.6147637520E+04      0.3310108659E+02      0.7193185221E+00
          0                 2           2           457  456     1       0.6597925997E-01     383  326    1      -0.1496600376E+03      0.6166870221E+03      0.6147637520E+04      0.6597925997E-01

    ------------------------------------------------
       NWT REQUIRED            2 OUTER ITERATIONS 
       AND A TOTAL OF          5 INNER ITERATIONS.
    ------------------------------------------------

 NO OUTPUT CONTROL FOR STRESS PERIOD   24   TIME STEP    8

 WELLS WITH REDUCED PUMPING FOR STRESS PERIOD    24 TIME STEP     8
   LAY   ROW   COL         APPL.Q          ACT.Q        GW-HEAD       CELL-BOT
     1    92    77  -0.620891E+03  -0.411669E+03  -0.782852E+02  -0.930000E+02


 SOLVING FOR HEAD 
                                                   Max.-Head-Change                        Max.-Flux-Residual
  Residual-Control   Outer-Iter.   Inner-Iter.     Column Row Layer    Max.-Head-Change    Column Row Layer    Max.-Flux-Residual            L2-New               L2-Old           Solver-Max-Delh
          0                 1           3           343  217     1       0.6686351846E+00     383  326    1       0.1367668034E+04      0.5824131358E+04      0.3079374115E+02      0.6686351846E+00
          0                 2           2           457  456     1       0.6626758182E-01     383  326    1      -0.1368727536E+03      0.5842000277E+03      0.5824131358E+04      0.6626758182E-01

    ------------------------------------------------
       NWT REQUIRED            2 OUTER ITERATIONS 
       AND A TOTAL OF          5 INNER ITERATIONS.
    ------------------------------------------------

 NO OUTPUT CONTROL FOR STRESS PERIOD   24   TIME STEP    9

 WELLS WITH REDUCED PUMPING FOR STRESS PERIOD    24 TIME STEP     9
   LAY   ROW   COL         APPL.Q          ACT.Q        GW-HEAD       CELL-BOT
     1    92    77  -0.620891E+03  -0.420002E+03  -0.780575E+02  -0.930000E+02


 SOLVING FOR HEAD 
                                                   Max.-Head-Change                        Max.-Flux-Residual
  Residual-Control   Outer-Iter.   Inner-Iter.     Column Row Layer    Max.-Head-Change    Column Row Layer    Max.-Flux-Residual            L2-New               L2-Old           Solver-Max-Delh
          0                 1           3           343  217     1       0.6171767151E+00     383  326    1       0.1255203156E+04      0.5559846827E+04      0.2921004350E+02      0.6171767151E+00
          0                 2           2           457  456     1       0.6654402551E-01     383  326    1      -0.1256156354E+03      0.5561205901E+03      0.5559846827E+04      0.6654402551E-01

    ------------------------------------------------
       NWT REQUIRED            2 OUTER ITERATIONS 
       AND A TOTAL OF          5 INNER ITERATIONS.
    ------------------------------------------------

 OUTPUT CONTROL FOR STRESS PERIOD   24   TIME STEP   10
    SAVE HEAD FOR ALL LAYERS

 WELLS WITH REDUCED PUMPING FOR STRESS PERIOD    24 TIME STEP    10
   LAY   ROW   COL         APPL.Q          ACT.Q        GW-HEAD       CELL-BOT
     1    92    77  -0.620891E+03  -0.426292E+03  -0.778841E+02  -0.930000E+02


 HEAD WILL BE SAVED ON UNIT   51 AT END OF TIME STEP   10, STRESS PERIOD   24
1
  VOLUMETRIC BUDGET FOR ENTIRE MODEL AT END OF TIME STEP   10, STRESS PERIOD  24
  ------------------------------------------------------------------------------

     CUMULATIVE VOLUMES      L**3       RATES FOR THIS TIME STEP      L**3/T
     ------------------                 ------------------------

           IN:                                      IN:
           ---                                      ---
             STORAGE =   320694752.0000               STORAGE =      214218.2969
       CONSTANT HEAD =    35898592.0000         CONSTANT HEAD =       51228.0977
               WELLS =           0.0000                 WELLS =           0.0000
              DRAINS =           0.0000                DRAINS =           0.0000
                  ET =           0.0000                    ET =           0.0000
            RECHARGE =   107763496.0000              RECHARGE =       89485.0469

            TOTAL IN =   464356832.0000              TOTAL IN =      354931.4375

          OUT:                                     OUT:
          ----                                     ----
             STORAGE =   100969048.0000               STORAGE =       80332.6953
       CONSTANT HEAD =           0.0000         CONSTANT HEAD =           0.0000
               WELLS =   248479488.0000                 WELLS =      145904.9844
              DRAINS =    78159288.0000                DRAINS =       93911.6875
                  ET =    36103384.0000                    ET =       34120.0625
            RECHARGE =       81860.0000              RECHARGE =           0.0000

           TOTAL OUT =   463793088.0000             TOTAL OUT =      354269.4375

            IN - OUT =      563744.0000              IN - OUT =         662.0000

 PERCENT DISCREPANCY =           0.12     PERCENT DISCREPANCY =           0.19






         TIME SUMMARY AT END OF TIME STEP   10 IN STRESS PERIOD   24
                    SECONDS     MINUTES      HOURS       DAYS        YEARS
                    -----------------------------------------------------------
   TIME STEP LENGTH 2.62656E+05  4377.6      72.960      3.0400     8.32307E-03
 STRESS PERIOD TIME 2.62656E+06  43776.      729.60      30.400     8.32307E-02
         TOTAL TIME 6.30373E+07 1.05062E+06  17510.      729.60      1.9975    
1
1
                            STRESS PERIOD NO.   25, LENGTH =   30.40000    
                            -----------------------------------------------

                              NUMBER OF TIME STEPS =    10

                               MULTIPLIER FOR DELT =     1.000

                            INITIAL TIME STEP SIZE =   3.040000    

 WELL NO.  LAYER   ROW   COL   STRESS RATE         
 --------------------------------------------------
      1      1     69    225      -2074.    
      2      1     71    224       0.000    
      3      1     74    220       0.000    
      4      1     73    220       0.000    
      5      1     71    223       0.000    
      6      1     71    223       0.000    
      7      1     72    223       0.000    
      8      1     92    173       0.000    
      9      1     94    174       0.000    
     10      1     93    175       0.000    
     11      1    203    328       0.000    
     12      1    438    460      -550.5    
     13      1    436    461      -550.5    
     14      1    410    454      -550.5    
     15      1    433    460      -550.5    
     16      1    431    462      -550.5    
     17      1    417    459      -550.5    
     18      1    418    458      -550.5    
     19      1    414    455      -550.5    
     20      1    443    464      -550.5    
     21      1    379    425      -550.5    
     22      1    362    405      -550.5    
     23      1    361    405      -550.5    
     24      1    362    406      -550.5    
     25      1    363    408      -550.5    
     26      1    364    410      -550.5    
     27      1    369    418      -550.5    
     28      1    367    417      -550.5    
     29      1    365    415      -550.5    
     30      1    402    447      -550.5    
     31      1    400    446      -550.5    
     32      1    392    444      -550.5    
     33      1    391    441      -550.5    
     34      1    403    448      -550.5    
     35      1    405    447      -550.5    
     36      1    362    410      -550.5    
     37      1    362    411      -550.5    
     38      1    363    412      -550.5    
     39      1    375    421      -550.5    
     40      1    383    430      -550.5    
     41      1    397    445      -550.5    
     42      1    360    403      -550.5    
     43      1    350    401      -550.5    
     44      1    346    393      -581.6    
     45      1    333    387      -581.6    
     46      1    328    384      -581.6    
     47      1    326    383      -581.6    
     48      1    323    378      -581.6    
     49      1    321    378      -581.6    
     50      1    322    376      -581.6    
     51      1    316    374      -581.6    
     52      1    311    371      -581.6    
     53      1    307    369      -581.6    
     54      1    305    368      -581.6    
     55      1    303    368      -581.6    
     56      1    300    369      -581.6    
     57      1    293    364      -581.6    
     58      1    292    362      -581.6    
     59      1    278    350      -581.6    
     60      1    274    351      -581.6    
     61      1    273    350      -581.6    
     62      1    271    350      -581.6    
     63      1    267    348      -581.6    
     64      1    263    348      -581.6    
     65      1    263    348      -581.6    
     66      1    248    347      -581.6    
     67      1    243    342      -581.6    
     68      1    242    339      -581.6    
     69      1    238    341      -581.6    
     70      1    233    340      -581.6    
     71      1    232    340      -581.6    
     72      1    229    341      -581.6    
     73      1    227    341      -581.6    
     74      1    219    342      -581.6    
     75      1    219    336      -581.6    
     76      1    199    329      -581.6    
     77      1    191    332      -0.000    
     78      1    190    332      -0.000    
     79      1    130    310      -0.000    
     80      1    123    305      -0.000    
     81      1    104    289      -0.000    
     82      1     96    287      -1045.    
     83      1     95    284      -1045.    
     84      1     95    280      -1045.    
     85      1     93    276      -1045.    
     86      1     94    275      -1045.    
     87      1     90    277      -1045.    
     88      1     90    273      -1045.    
     89      1     86    271      -1045.    
     90      1     85    270      -1045.    
     91      1     84    265      -1045.    
     92      1     85    265      -1045.    
     93      1     84    264      -1045.    
     94      1     79    263      -1045.    
     95      1     79    263      -1045.    
     96      1     76    262      -1045.    
     97      1     73    257      -1045.    
     98      1     74    255      -1045.    
     99      1     71    255      -1045.    
    100      1     66    253      -1045.    
    101      1     68    252      -1045.    
    102      1     69    250      -1045.    
    103      1     65    248      -1045.    
    104      1     68    248      -1045.    
    105      1     69    247      -1045.    
    106      1     73    247      -1045.    
    107      1     64    246      -1045.    
    108      1     69    245      -1045.    
    109      1     72    245      -1045.    
    110      1     69    241      -1045.    
    111      1     73    238      -1045.    
    112      1     70    238      -1045.    
    113      1     76    263      -1045.    
    114      1     66    232      -728.1    
    115      1     69    229      -728.1    
    116      1     71    228      -728.1    
    117      1     69    227      -728.1    
    118      1     72    219      -728.1    
    119      1     72    218      -728.1    
    120      1     72    218      -728.1    
    121      1     73    217      -728.1    
    122      1     77    219      -728.1    
    123      1     78    219      -728.1    
    124      1     83    213      -728.1    
    125      1     77    213      -728.1    
    126      1     81    211      -728.1    
    127      1     81    210      -728.1    
    128      1     81    210      -728.1    
    129      1     82    208      -728.1    
    130      1     80    205      -728.1    
    131      1     86    202      -728.1    
    132      1     84    200      -728.1    
    133      1     89    200      -728.1    
    134      1     89    199      -728.1    
    135      1     88    199      -728.1    
    136      1     86    199      -728.1    
    137      1     85    199      -728.1    
    138      1     82    197      -728.1    
    139      1     86    197      -728.1    
    140      1     88    198      -728.1    
    141      1     90    192      -728.1    
    142      1     89    191      -728.1    
    143      1     84    192      -728.1    
    144      1     91    189      -728.1    
    145      1     92    185      -728.1    
    146      1     87    183      -728.1    
    147      1     92    182      -728.1    
    148      1     90    182      -728.1    
    149      1     88    179      -728.1    
    150      1     89    176      -728.1    
    151      1     92    172      -728.1    
    152      1     93    164      -728.1    
    153      1     94    162      -728.1    
    154      1    103    156      -728.1    
    155      1    103    156      -728.1    
    156      1     96    154      -728.1    
    157      1     97    153      -728.1    
    158      1    122    139      -728.1    
    159      1     92     77      -728.1    
    160      1     94     77      -728.1    
    161      1     94     73      -728.1    
    162      1     97    152      -728.1    
    163      1    118    337      -666.7    
    164      1    133    319      -2678.    
    165      1    131    320      -3951.    
    166      1    133    321      -2956.    
    167      1    161    329      -2141.    
    168      1    178    330      -551.0    
    169      1    163    330      -1122.    
    170      1    131    320      -2473.    
    171      1    129    315      -3937.    
    172      1    162    329      -1959.    
    173      1    131    311      -826.1    
    174      1    221    340      -1994.    
    175      1    220    340      -1034.    
    176      1    221    340      -667.7    
    177      1    137    322      -2082.    
    178      1    137    321      -1407.    
    179      1    185    329      -2012.    
    180      1    183    329      -1473.    
    181      1    175    329      -585.3    
    182      1     79    243      -1490.    
    183      1     77    245      -2414.    
    184      1    199    329      -1617.    
    185      1    198    330      -2514.    
    186      1    140    328      -972.1    
    187      1    143    327      -863.6    
    188      1    139    327      -1331.    

    188 WELLS

 REUSING NON-PARAMETER DRAINS FROM LAST STRESS PERIOD

   1061 DRAINS

 REUSING SURF FROM LAST STRESS PERIOD

 REUSING EVTR FROM LAST STRESS PERIOD

 REUSING EXDP FROM LAST STRESS PERIOD



                           RECHARGE
 READING ON UNIT   19 WITH FORMAT: (510E15.6)          

 SOLVING FOR HEAD 
                                                   Max.-Head-Change                        Max.-Flux-Residual
  Residual-Control   Outer-Iter.   Inner-Iter.     Column Row Layer    Max.-Head-Change    Column Row Layer    Max.-Flux-Residual            L2-New               L2-Old           Solver-Max-Delh
          0                 1           3           223   71     1       0.2954158135E+01     223   71    1       0.1349432349E+05      0.2384597995E+05      0.2780655342E+02      0.2954158135E+01
          0                 2           2           223   71     1      -0.2580018135E+00     223   71    1      -0.1372129630E+04      0.2432316893E+04      0.2384597995E+05     -0.2580018135E+00
          0                 3           2           457  456     1       0.6656793127E-01     223   71    1      -0.6877946079E+02      0.1218297439E+03      0.2432316893E+04      0.6656793127E-01

    ------------------------------------------------
       NWT REQUIRED            3 OUTER ITERATIONS 
       AND A TOTAL OF          7 INNER ITERATIONS.
    ------------------------------------------------

 NO OUTPUT CONTROL FOR STRESS PERIOD   25   TIME STEP    1

 WELLS WITH REDUCED PUMPING FOR STRESS PERIOD    25 TIME STEP     1
   LAY   ROW   COL         APPL.Q          ACT.Q        GW-HEAD       CELL-BOT
     1    92    77  -0.728135E+03  -0.488150E+03  -0.781602E+02  -0.930000E+02


 SOLVING FOR HEAD 
                                                   Max.-Head-Change                        Max.-Flux-Residual
  Residual-Control   Outer-Iter.   Inner-Iter.     Column Row Layer    Max.-Head-Change    Column Row Layer    Max.-Flux-Residual            L2-New               L2-Old           Solver-Max-Delh
          0                 1           3           223   71     1       0.1686014281E+01     223   71    1       0.7137438786E+04      0.1377746559E+05      0.1218297439E+03      0.1686014281E+01
          0                 2           2           223   71     1      -0.1471818846E+00     223   71    1      -0.7220116833E+03      0.1390973838E+04      0.1377746559E+05     -0.1471818846E+00
          0                 3           2           457  456     1       0.6657368004E-01     223   71    1      -0.3614975454E+02      0.6957931015E+02      0.1390973838E+04      0.6657368004E-01

    ------------------------------------------------
       NWT REQUIRED            3 OUTER ITERATIONS 
       AND A TOTAL OF          7 INNER ITERATIONS.
    ------------------------------------------------

 NO OUTPUT CONTROL FOR STRESS PERIOD   25   TIME STEP    2

 WELLS WITH REDUCED PUMPING FOR STRESS PERIOD    25 TIME STEP     2
   LAY   ROW   COL         APPL.Q          ACT.Q        GW-HEAD       CELL-BOT
     1    92    77  -0.728135E+03  -0.479231E+03  -0.783674E+02  -0.930000E+02


 SOLVING FOR HEAD 
                                                   Max.-Head-Change                        Max.-Flux-Residual
  Residual-Control   Outer-Iter.   Inner-Iter.     Column Row Layer    Max.-Head-Change    Column Row Layer    Max.-Flux-Residual            L2-New               L2-Old           Solver-Max-Delh
          0                 1           3           223   71     1       0.1037977173E+01     223   71    1       0.4074193342E+04      0.1065336011E+05      0.6957931015E+02      0.1037977173E+01
          0                 2           2           223   71     1      -0.9151193030E-01     223   71    1      -0.4221869197E+03      0.1071613863E+04      0.1065336011E+05     -0.9151193030E-01

    ------------------------------------------------
       NWT REQUIRED            2 OUTER ITERATIONS 
       AND A TOTAL OF          5 INNER ITERATIONS.
    ------------------------------------------------

 NO OUTPUT CONTROL FOR STRESS PERIOD   25   TIME STEP    3

 WELLS WITH REDUCED PUMPING FOR STRESS PERIOD    25 TIME STEP     3
   LAY   ROW   COL         APPL.Q          ACT.Q        GW-HEAD       CELL-BOT
     1    92    77  -0.728135E+03  -0.472451E+03  -0.785237E+02  -0.930000E+02


 SOLVING FOR HEAD 
                                                   Max.-Head-Change                        Max.-Flux-Residual
  Residual-Control   Outer-Iter.   Inner-Iter.     Column Row Layer    Max.-Head-Change    Column Row Layer    Max.-Flux-Residual            L2-New               L2-Old           Solver-Max-Delh
          0                 1           3           223   71     1       0.6845401930E+00     223   71    1       0.2497992547E+04      0.9188916259E+04      0.5361224093E+02      0.6845401930E+00
          0                 2           2           457  456     1       0.6704149066E-01     223   71    1      -0.2514894038E+03      0.9206851380E+03      0.9188916259E+04      0.6704149066E-01

    ------------------------------------------------
       NWT REQUIRED            2 OUTER ITERATIONS 
       AND A TOTAL OF          5 INNER ITERATIONS.
    ------------------------------------------------

 NO OUTPUT CONTROL FOR STRESS PERIOD   25   TIME STEP    4

 WELLS WITH REDUCED PUMPING FOR STRESS PERIOD    25 TIME STEP     4
   LAY   ROW   COL         APPL.Q          ACT.Q        GW-HEAD       CELL-BOT
     1    92    77  -0.728135E+03  -0.467327E+03  -0.786413E+02  -0.930000E+02


 SOLVING FOR HEAD 
                                                   Max.-Head-Change                        Max.-Flux-Residual
  Residual-Control   Outer-Iter.   Inner-Iter.     Column Row Layer    Max.-Head-Change    Column Row Layer    Max.-Flux-Residual            L2-New               L2-Old           Solver-Max-Delh
          0                 1           3           223   71     1       0.4854208955E+00     223   71    1       0.1651431672E+04      0.8385789129E+04      0.4604669356E+02      0.4854208955E+00
          0                 2           2           457  456     1       0.6726017570E-01     223   71    1      -0.1658639546E+03      0.8392591269E+03      0.8385789129E+04      0.6726017570E-01

    ------------------------------------------------
       NWT REQUIRED            2 OUTER ITERATIONS 
       AND A TOTAL OF          5 INNER ITERATIONS.
    ------------------------------------------------

 NO OUTPUT CONTROL FOR STRESS PERIOD   25   TIME STEP    5

 WELLS WITH REDUCED PUMPING FOR STRESS PERIOD    25 TIME STEP     5
   LAY   ROW   COL         APPL.Q          ACT.Q        GW-HEAD       CELL-BOT
     1    92    77  -0.728135E+03  -0.463440E+03  -0.787302E+02  -0.930000E+02


 SOLVING FOR HEAD 
                                                   Max.-Head-Change                        Max.-Flux-Residual
  Residual-Control   Outer-Iter.   Inner-Iter.     Column Row Layer    Max.-Head-Change    Column Row Layer    Max.-Flux-Residual            L2-New               L2-Old           Solver-Max-Delh
          0                 1           3           223   71     1       0.3662467264E+00     223   71    1       0.1171885146E+04      0.7879350913E+04      0.4197145590E+02      0.3662467264E+00
          0                 2           2           457  456     1       0.6746761935E-01     223   71    1      -0.1175385522E+03      0.7910349629E+03      0.7879350913E+04      0.6746761935E-01

    ------------------------------------------------
       NWT REQUIRED            2 OUTER ITERATIONS 
       AND A TOTAL OF          5 INNER ITERATIONS.
    ------------------------------------------------

 NO OUTPUT CONTROL FOR STRESS PERIOD   25   TIME STEP    6

 WELLS WITH REDUCED PUMPING FOR STRESS PERIOD    25 TIME STEP     6
   LAY   ROW   COL         APPL.Q          ACT.Q        GW-HEAD       CELL-BOT
     1    92    77  -0.728135E+03  -0.460476E+03  -0.787979E+02  -0.930000E+02


 SOLVING FOR HEAD 
                                                   Max.-Head-Change                        Max.-Flux-Residual
  Residual-Control   Outer-Iter.   Inner-Iter.     Column Row Layer    Max.-Head-Change    Column Row Layer    Max.-Flux-Residual            L2-New               L2-Old           Solver-Max-Delh
          0                 1           3           223   72     1       0.2952397361E+00     223   71    1       0.8846290337E+03      0.7521230118E+04      0.4026106865E+02      0.2952397361E+00
          0                 2           2           457  456     1       0.6766384333E-01     223   71    1      -0.8865265798E+02      0.7524093474E+03      0.7521230118E+04      0.6766384333E-01

    ------------------------------------------------
       NWT REQUIRED            2 OUTER ITERATIONS 
       AND A TOTAL OF          5 INNER ITERATIONS.
    ------------------------------------------------

 NO OUTPUT CONTROL FOR STRESS PERIOD   25   TIME STEP    7

 WELLS WITH REDUCED PUMPING FOR STRESS PERIOD    25 TIME STEP     7
   LAY   ROW   COL         APPL.Q          ACT.Q        GW-HEAD       CELL-BOT
     1    92    77  -0.728135E+03  -0.458198E+03  -0.788498E+02  -0.930000E+02


 SOLVING FOR HEAD 
                                                   Max.-Head-Change                        Max.-Flux-Residual
  Residual-Control   Outer-Iter.   Inner-Iter.     Column Row Layer    Max.-Head-Change    Column Row Layer    Max.-Flux-Residual            L2-New               L2-Old           Solver-Max-Delh
          0                 1           3           223   72     1       0.2456692325E+00     223   72    1       0.7135553507E+03      0.7244242656E+04      0.3762312637E+02      0.2456692325E+00
          0                 2           2           457  456     1       0.6784886526E-01     223   72    1      -0.7147068386E+02      0.7263000420E+03      0.7244242656E+04      0.6784886526E-01

    ------------------------------------------------
       NWT REQUIRED            2 OUTER ITERATIONS 
       AND A TOTAL OF          5 INNER ITERATIONS.
    ------------------------------------------------

 NO OUTPUT CONTROL FOR STRESS PERIOD   25   TIME STEP    8

 WELLS WITH REDUCED PUMPING FOR STRESS PERIOD    25 TIME STEP     8
   LAY   ROW   COL         APPL.Q          ACT.Q        GW-HEAD       CELL-BOT
     1    92    77  -0.728135E+03  -0.456429E+03  -0.788900E+02  -0.930000E+02


 SOLVING FOR HEAD 
                                                   Max.-Head-Change                        Max.-Flux-Residual
  Residual-Control   Outer-Iter.   Inner-Iter.     Column Row Layer    Max.-Head-Change    Column Row Layer    Max.-Flux-Residual            L2-New               L2-Old           Solver-Max-Delh
          0                 1           3           197   82     1       0.2189159757E+00     223   72    1       0.5938803316E+03      0.7016315344E+04      0.3631668862E+02      0.2189159757E+00
          0                 2           2           457  456     1       0.6802270528E-01     223   72    1      -0.5947160420E+02      0.7018416849E+03      0.7016315344E+04      0.6802270528E-01

    ------------------------------------------------
       NWT REQUIRED            2 OUTER ITERATIONS 
       AND A TOTAL OF          5 INNER ITERATIONS.
    ------------------------------------------------

 NO OUTPUT CONTROL FOR STRESS PERIOD   25   TIME STEP    9

 WELLS WITH REDUCED PUMPING FOR STRESS PERIOD    25 TIME STEP     9
   LAY   ROW   COL         APPL.Q          ACT.Q        GW-HEAD       CELL-BOT
     1    92    77  -0.728135E+03  -0.455037E+03  -0.789216E+02  -0.930000E+02


 SOLVING FOR HEAD 
                                                   Max.-Head-Change                        Max.-Flux-Residual
  Residual-Control   Outer-Iter.   Inner-Iter.     Column Row Layer    Max.-Head-Change    Column Row Layer    Max.-Flux-Residual            L2-New               L2-Old           Solver-Max-Delh
          0                 1           3            53   88     1       0.2152091108E+00     197   82    1       0.5253457313E+03      0.6820549106E+04      0.3509334763E+02      0.2152091108E+00
          0                 2           2           457  456     1       0.6818538485E-01     197   82    1      -0.5253897912E+02      0.6821950595E+03      0.6820549106E+04      0.6818538485E-01

    ------------------------------------------------
       NWT REQUIRED            2 OUTER ITERATIONS 
       AND A TOTAL OF          5 INNER ITERATIONS.
    ------------------------------------------------

 OUTPUT CONTROL FOR STRESS PERIOD   25   TIME STEP   10
    SAVE HEAD FOR ALL LAYERS

 WELLS WITH REDUCED PUMPING FOR STRESS PERIOD    25 TIME STEP    10
   LAY   ROW   COL         APPL.Q          ACT.Q        GW-HEAD       CELL-BOT
     1    92    77  -0.728135E+03  -0.453924E+03  -0.789469E+02  -0.930000E+02


 HEAD WILL BE SAVED ON UNIT   51 AT END OF TIME STEP   10, STRESS PERIOD   25
1
  VOLUMETRIC BUDGET FOR ENTIRE MODEL AT END OF TIME STEP   10, STRESS PERIOD  25
  ------------------------------------------------------------------------------

     CUMULATIVE VOLUMES      L**3       RATES FOR THIS TIME STEP      L**3/T
     ------------------                 ------------------------

           IN:                                      IN:
           ---                                      ---
             STORAGE =   326255104.0000               STORAGE =      170843.7031
       CONSTANT HEAD =    37457068.0000         CONSTANT HEAD =       51295.3711
               WELLS =           0.0000                 WELLS =           0.0000
              DRAINS =           0.0000                DRAINS =           0.0000
                  ET =           0.0000                    ET =           0.0000
            RECHARGE =   113439416.0000              RECHARGE =      186707.7500

            TOTAL IN =   477151584.0000              TOTAL IN =      408846.8125

          OUT:                                     OUT:
          ----                                     ----
             STORAGE =   105497944.0000               STORAGE =      134875.7812
       CONSTANT HEAD =           0.0000         CONSTANT HEAD =           0.0000
               WELLS =   252769568.0000                 WELLS =      141109.1406
              DRAINS =    81064184.0000                DRAINS =       96799.5156
                  ET =    37170104.0000                    ET =       35885.7773
            RECHARGE =       81860.0000              RECHARGE =           0.0000

           TOTAL OUT =   476583680.0000             TOTAL OUT =      408670.2188

            IN - OUT =      567904.0000              IN - OUT =         176.5938

 PERCENT DISCREPANCY =           0.12     PERCENT DISCREPANCY =           0.04






         TIME SUMMARY AT END OF TIME STEP   10 IN STRESS PERIOD   25
                    SECONDS     MINUTES      HOURS       DAYS        YEARS
                    -----------------------------------------------------------
   TIME STEP LENGTH 2.62656E+05  4377.6      72.960      3.0400     8.32307E-03
 STRESS PERIOD TIME 2.62656E+06  43776.      729.60      30.400     8.32307E-02
         TOTAL TIME 6.56639E+07 1.09440E+06  18240.      760.00      2.0808    
1
1
                            STRESS PERIOD NO.   26, LENGTH =   30.40000    
                            -----------------------------------------------

                              NUMBER OF TIME STEPS =    10

                               MULTIPLIER FOR DELT =     1.000

                            INITIAL TIME STEP SIZE =   3.040000    

 WELL NO.  LAYER   ROW   COL   STRESS RATE         
 --------------------------------------------------
      1      1     69    225      -2160.    
      2      1     71    224       0.000    
      3      1     74    220       0.000    
      4      1     73    220       0.000    
      5      1     71    223       0.000    
      6      1     71    223       0.000    
      7      1     72    223       0.000    
      8      1     92    173       0.000    
      9      1     94    174       0.000    
     10      1     93    175       0.000    
     11      1    203    328       0.000    
     12      1    438    460      -2360.    
     13      1    436    461      -2360.    
     14      1    410    454      -2360.    
     15      1    433    460      -2360.    
     16      1    431    462      -2360.    
     17      1    417    459      -2360.    
     18      1    418    458      -2360.    
     19      1    414    455      -2360.    
     20      1    443    464      -2360.    
     21      1    379    425      -2360.    
     22      1    362    405      -2360.    
     23      1    361    405      -2360.    
     24      1    362    406      -2360.    
     25      1    363    408      -2360.    
     26      1    364    410      -2360.    
     27      1    369    418      -2360.    
     28      1    367    417      -2360.    
     29      1    365    415      -2360.    
     30      1    402    447      -2360.    
     31      1    400    446      -2360.    
     32      1    392    444      -2360.    
     33      1    391    441      -2360.    
     34      1    403    448      -2360.    
     35      1    405    447      -2360.    
     36      1    362    410      -2360.    
     37      1    362    411      -2360.    
     38      1    363    412      -2360.    
     39      1    375    421      -2360.    
     40      1    383    430      -2360.    
     41      1    397    445      -2360.    
     42      1    360    403      -2360.    
     43      1    350    401      -2360.    
     44      1    346    393      -2540.    
     45      1    333    387      -2540.    
     46      1    328    384      -2540.    
     47      1    326    383      -2540.    
     48      1    323    378      -2540.    
     49      1    321    378      -2540.    
     50      1    322    376      -2540.    
     51      1    316    374      -2540.    
     52      1    311    371      -2540.    
     53      1    307    369      -2540.    
     54      1    305    368      -2540.    
     55      1    303    368      -2540.    
     56      1    300    369      -2540.    
     57      1    293    364      -2540.    
     58      1    292    362      -2540.    
     59      1    278    350      -2540.    
     60      1    274    351      -2540.    
     61      1    273    350      -2540.    
     62      1    271    350      -2540.    
     63      1    267    348      -2540.    
     64      1    263    348      -2540.    
     65      1    263    348      -2540.    
     66      1    248    347      -2540.    
     67      1    243    342      -2540.    
     68      1    242    339      -2540.    
     69      1    238    341      -2540.    
     70      1    233    340      -2540.    
     71      1    232    340      -2540.    
     72      1    229    341      -2540.    
     73      1    227    341      -2540.    
     74      1    219    342      -2540.    
     75      1    219    336      -2540.    
     76      1    199    329      -2540.    
     77      1    191    332      -449.5    
     78      1    190    332      -449.5    
     79      1    130    310      -449.5    
     80      1    123    305      -449.5    
     81      1    104    289      -449.5    
     82      1     96    287      -4290.    
     83      1     95    284      -4290.    
     84      1     95    280      -4290.    
     85      1     93    276      -4290.    
     86      1     94    275      -4290.    
     87      1     90    277      -4290.    
     88      1     90    273      -4290.    
     89      1     86    271      -4290.    
     90      1     85    270      -4290.    
     91      1     84    265      -4290.    
     92      1     85    265      -4290.    
     93      1     84    264      -4290.    
     94      1     79    263      -4290.    
     95      1     79    263      -4290.    
     96      1     76    262      -4290.    
     97      1     73    257      -4290.    
     98      1     74    255      -4290.    
     99      1     71    255      -4290.    
    100      1     66    253      -4290.    
    101      1     68    252      -4290.    
    102      1     69    250      -4290.    
    103      1     65    248      -4290.    
    104      1     68    248      -4290.    
    105      1     69    247      -4290.    
    106      1     73    247      -4290.    
    107      1     64    246      -4290.    
    108      1     69    245      -4290.    
    109      1     72    245      -4290.    
    110      1     69    241      -4290.    
    111      1     73    238      -4290.    
    112      1     70    238      -4290.    
    113      1     76    263      -4290.    
    114      1     66    232      -2310.    
    115      1     69    229      -2310.    
    116      1     71    228      -2310.    
    117      1     69    227      -2310.    
    118      1     72    219      -2310.    
    119      1     72    218      -2310.    
    120      1     72    218      -2310.    
    121      1     73    217      -2310.    
    122      1     77    219      -2310.    
    123      1     78    219      -2310.    
    124      1     83    213      -2310.    
    125      1     77    213      -2310.    
    126      1     81    211      -2310.    
    127      1     81    210      -2310.    
    128      1     81    210      -2310.    
    129      1     82    208      -2310.    
    130      1     80    205      -2310.    
    131      1     86    202      -2310.    
    132      1     84    200      -2310.    
    133      1     89    200      -2310.    
    134      1     89    199      -2310.    
    135      1     88    199      -2310.    
    136      1     86    199      -2310.    
    137      1     85    199      -2310.    
    138      1     82    197      -2310.    
    139      1     86    197      -2310.    
    140      1     88    198      -2310.    
    141      1     90    192      -2310.    
    142      1     89    191      -2310.    
    143      1     84    192      -2310.    
    144      1     91    189      -2310.    
    145      1     92    185      -2310.    
    146      1     87    183      -2310.    
    147      1     92    182      -2310.    
    148      1     90    182      -2310.    
    149      1     88    179      -2310.    
    150      1     89    176      -2310.    
    151      1     92    172      -2310.    
    152      1     93    164      -2310.    
    153      1     94    162      -2310.    
    154      1    103    156      -2310.    
    155      1    103    156      -2310.    
    156      1     96    154      -2310.    
    157      1     97    153      -2310.    
    158      1    122    139      -2310.    
    159      1     92     77      -2310.    
    160      1     94     77      -2310.    
    161      1     94     73      -2310.    
    162      1     97    152      -2310.    
    163      1    118    337      -666.7    
    164      1    133    319      -2678.    
    165      1    131    320      -3951.    
    166      1    133    321      -2956.    
    167      1    161    329      -2141.    
    168      1    178    330      -551.0    
    169      1    163    330      -1122.    
    170      1    131    320      -2473.    
    171      1    129    315      -3937.    
    172      1    162    329      -1959.    
    173      1    131    311      -826.1    
    174      1    221    340      -1994.    
    175      1    220    340      -1034.    
    176      1    221    340      -667.7    
    177      1    137    322      -2082.    
    178      1    137    321      -1407.    
    179      1    185    329      -2012.    
    180      1    183    329      -1473.    
    181      1    175    329      -585.3    
    182      1     79    243      -1490.    
    183      1     77    245      -2414.    
    184      1    199    329      -1617.    
    185      1    198    330      -2514.    
    186      1    140    328      -972.1    
    187      1    143    327      -863.6    
    188      1    139    327      -1331.    

    188 WELLS

 REUSING NON-PARAMETER DRAINS FROM LAST STRESS PERIOD

   1061 DRAINS

 REUSING SURF FROM LAST STRESS PERIOD

 REUSING EVTR FROM LAST STRESS PERIOD

 REUSING EXDP FROM LAST STRESS PERIOD



                           RECHARGE
 READING ON UNIT   19 WITH FORMAT: (510E15.6)          

 SOLVING FOR HEAD 
                                                   Max.-Head-Change                        Max.-Flux-Residual
  Residual-Control   Outer-Iter.   Inner-Iter.     Column Row Layer    Max.-Head-Change    Column Row Layer    Max.-Flux-Residual            L2-New               L2-Old           Solver-Max-Delh
          0                 1           3           263   79     1      -0.1785542245E+02     263   79    1      -0.6466142925E+04      0.3016731974E+05      0.3410944579E+02     -0.1785542245E+02
          0                 2           3           263   79     1       0.1379352295E+01     263   79    1       0.5579140920E+03      0.2982325033E+04      0.3016731974E+05      0.1379352295E+01
          0                 3           2           457  456     1       0.6807069114E-01     263   79    1       0.2732443367E+02      0.1518130514E+03      0.2982325033E+04      0.6807069114E-01

    ------------------------------------------------
       NWT REQUIRED            3 OUTER ITERATIONS 
       AND A TOTAL OF          8 INNER ITERATIONS.
    ------------------------------------------------

 NO OUTPUT CONTROL FOR STRESS PERIOD   26   TIME STEP    1

 WELLS WITH REDUCED PUMPING FOR STRESS PERIOD    26 TIME STEP     1
   LAY   ROW   COL         APPL.Q          ACT.Q        GW-HEAD       CELL-BOT
     1    92    77  -0.230952E+04  -0.944561E+03  -0.824181E+02  -0.930000E+02


 SOLVING FOR HEAD 
                                                   Max.-Head-Change                        Max.-Flux-Residual
  Residual-Control   Outer-Iter.   Inner-Iter.     Column Row Layer    Max.-Head-Change    Column Row Layer    Max.-Flux-Residual            L2-New               L2-Old           Solver-Max-Delh
          0                 1           3           263   79     1      -0.7180236090E+01     156  103    1      -0.2433122422E+04      0.1773767353E+05      0.1518130514E+03     -0.7180236090E+01
          0                 2           3           203   89     1      -0.1319923445E+01     203   89    1      -0.1438172946E+04      0.2284310409E+04      0.1773767353E+05     -0.1319923445E+01
          0                 3           2           203   89     1       0.9891496229E+00     203   89    1       0.2012674642E+03      0.2199567391E+03      0.2284310409E+04      0.9891496229E+00
          1                 3           0           203   89     1       0.6924047243E+00     203   89    1      -0.9320677277E+03      0.9320782974E+03      0.2199567391E+03      0.9891496229E+00
          2                 3           0           203   89     1       0.4846832987E+00     203   89    1      -0.4667857364E+03      0.4677309983E+03      0.9320782974E+03      0.9891496229E+00
          0                 4           2           457  456     1       0.6781024664E-01     203   89    1      -0.1411263952E+03      0.1488811575E+03      0.4677309983E+03      0.6781024664E-01

    ------------------------------------------------
       NWT REQUIRED            4 OUTER ITERATIONS 
       AND A TOTAL OF         10 INNER ITERATIONS.
    ------------------------------------------------

 NO OUTPUT CONTROL FOR STRESS PERIOD   26   TIME STEP    2

 WELLS WITH REDUCED PUMPING FOR STRESS PERIOD    26 TIME STEP     2
   LAY   ROW   COL         APPL.Q          ACT.Q        GW-HEAD       CELL-BOT
     1    92    77  -0.230952E+04  -0.711893E+03  -0.841016E+02  -0.930000E+02


 SOLVING FOR HEAD 
                                                   Max.-Head-Change                        Max.-Flux-Residual
  Residual-Control   Outer-Iter.   Inner-Iter.     Column Row Layer    Max.-Head-Change    Column Row Layer    Max.-Flux-Residual            L2-New               L2-Old           Solver-Max-Delh
          0                 1           3           263   79     1      -0.3221195077E+01      77   94    1      -0.2021934324E+04      0.1553405922E+05      0.1488811575E+03     -0.3221195077E+01
          0                 2           2           263   79     1       0.2685803871E+00      77   94    1       0.2021000373E+03      0.1555423027E+04      0.1553405922E+05      0.2685803871E+00
          0                 3           2           457  456     1       0.6767898672E-01      77   94    1       0.1010431703E+02      0.7777783351E+02      0.1555423027E+04      0.6767898672E-01

    ------------------------------------------------
       NWT REQUIRED            3 OUTER ITERATIONS 
       AND A TOTAL OF          7 INNER ITERATIONS.
    ------------------------------------------------

 NO OUTPUT CONTROL FOR STRESS PERIOD   26   TIME STEP    3

 WELLS WITH REDUCED PUMPING FOR STRESS PERIOD    26 TIME STEP     3
   LAY   ROW   COL         APPL.Q          ACT.Q        GW-HEAD       CELL-BOT
     1    92    77  -0.230952E+04  -0.602101E+03  -0.849394E+02  -0.930000E+02


 SOLVING FOR HEAD 
                                                   Max.-Head-Change                        Max.-Flux-Residual
  Residual-Control   Outer-Iter.   Inner-Iter.     Column Row Layer    Max.-Head-Change    Column Row Layer    Max.-Flux-Residual            L2-New               L2-Old           Solver-Max-Delh
          0                 1           3            53   88     1       0.1686274859E+01      77   94    1      -0.2020411096E+04      0.1442823336E+05      0.7777783351E+02      0.1686274859E+01
          0                 2           2            52   88     1      -0.1458142056E+00      77   94    1       0.2019478456E+03      0.1446237592E+04      0.1442823336E+05     -0.1458142056E+00
          0                 3           2           457  456     1       0.6754068485E-01      77   94    1       0.1009671432E+02      0.7231795112E+02      0.1446237592E+04      0.6754068485E-01

    ------------------------------------------------
       NWT REQUIRED            3 OUTER ITERATIONS 
       AND A TOTAL OF          7 INNER ITERATIONS.
    ------------------------------------------------

 NO OUTPUT CONTROL FOR STRESS PERIOD   26   TIME STEP    4

 WELLS WITH REDUCED PUMPING FOR STRESS PERIOD    26 TIME STEP     4
   LAY   ROW   COL         APPL.Q          ACT.Q        GW-HEAD       CELL-BOT
     1    92    77  -0.230952E+04  -0.548524E+03  -0.853639E+02  -0.930000E+02


 SOLVING FOR HEAD 
                                                   Max.-Head-Change                        Max.-Flux-Residual
  Residual-Control   Outer-Iter.   Inner-Iter.     Column Row Layer    Max.-Head-Change    Column Row Layer    Max.-Flux-Residual            L2-New               L2-Old           Solver-Max-Delh
          0                 1           3            53   88     1       0.1671736586E+01      77   94    1      -0.2018889955E+04      0.1371752138E+05      0.7231795112E+02      0.1671736586E+01
          0                 2           2            53   88     1      -0.2112077450E+02      48   86    1      -0.3834180250E+03      0.1465390506E+04      0.1371752138E+05     -0.2112077450E+02
          1                 2           0            53   88     1      -0.1478454190E+02      53   88    1       0.3023450436E+04      0.4241647733E+04      0.1465390506E+04     -0.2112077450E+02
          2                 2           0            53   88     1      -0.1034917915E+02      53   88    1       0.2122730595E+04      0.3012420914E+04      0.4241647733E+04     -0.2112077450E+02
          3                 2           0            53   88     1      -0.7244425284E+01      53   88    1       0.1485552652E+04      0.2208941406E+04      0.3012420914E+04     -0.2112077450E+02
          4                 2           0            53   88     1      -0.5071097613E+01      53   88    1       0.1036249830E+04      0.1723289505E+04      0.2208941406E+04     -0.2112077450E+02
          0                 3           2            53   88     1       0.4062706757E+01      53   88    1       0.7201315073E+03      0.1464530083E+04      0.1723289505E+04      0.4062706757E+01
          0                 4           2            53   88     1      -0.1794844341E+00      53   88    1      -0.1374353012E+03      0.1473927797E+03      0.1464530083E+04     -0.1794844341E+00
          0                 5           2           457  456     1       0.6704518361E-01      53   88    1      -0.3929629584E+02      0.3940880033E+02      0.1473927797E+03      0.6704518361E-01

    ------------------------------------------------
       NWT REQUIRED            5 OUTER ITERATIONS 
       AND A TOTAL OF         11 INNER ITERATIONS.
    ------------------------------------------------

 NO OUTPUT CONTROL FOR STRESS PERIOD   26   TIME STEP    5

 WELLS WITH REDUCED PUMPING FOR STRESS PERIOD    26 TIME STEP     5
   LAY   ROW   COL         APPL.Q          ACT.Q        GW-HEAD       CELL-BOT
     1    92    77  -0.230952E+04  -0.521687E+03  -0.855813E+02  -0.930000E+02


 SOLVING FOR HEAD 
                                                   Max.-Head-Change                        Max.-Flux-Residual
  Residual-Control   Outer-Iter.   Inner-Iter.     Column Row Layer    Max.-Head-Change    Column Row Layer    Max.-Flux-Residual            L2-New               L2-Old           Solver-Max-Delh
          0                 1           3            54   88     1       0.1618337577E+01      77   94    1      -0.2017371199E+04      0.1319772393E+05      0.3940880033E+02      0.1618337577E+01
          0                 2           3            52   88     1      -0.6516690626E+00      52   88    1      -0.3752869937E+03      0.1421620568E+04      0.1319772393E+05     -0.6516690626E+00
          0                 3           2           457  456     1       0.6689432594E-01      52   88    1      -0.1882749912E+02      0.7099935985E+02      0.1421620568E+04      0.6689432594E-01

    ------------------------------------------------
       NWT REQUIRED            3 OUTER ITERATIONS 
       AND A TOTAL OF          8 INNER ITERATIONS.
    ------------------------------------------------

 NO OUTPUT CONTROL FOR STRESS PERIOD   26   TIME STEP    6

 WELLS WITH REDUCED PUMPING FOR STRESS PERIOD    26 TIME STEP     6
   LAY   ROW   COL         APPL.Q          ACT.Q        GW-HEAD       CELL-BOT
     1    92    77  -0.230952E+04  -0.508006E+03  -0.856934E+02  -0.930000E+02


 SOLVING FOR HEAD 
                                                   Max.-Head-Change                        Max.-Flux-Residual
  Residual-Control   Outer-Iter.   Inner-Iter.     Column Row Layer    Max.-Head-Change    Column Row Layer    Max.-Flux-Residual            L2-New               L2-Old           Solver-Max-Delh
          0                 1           3            54   88     1       0.1596359627E+01      77   94    1      -0.2015854082E+04      0.1279060528E+05      0.7099935985E+02      0.1596359627E+01
          0                 2           3            51   87     1      -0.3992696382E+00      51   87    1      -0.2305605482E+03      0.1302140815E+04      0.1279060528E+05     -0.3992696382E+00
          0                 3           2           457  456     1       0.6673574933E-01      51   87    1      -0.1155208629E+02      0.6511501916E+02      0.1302140815E+04      0.6673574933E-01

    ------------------------------------------------
       NWT REQUIRED            3 OUTER ITERATIONS 
       AND A TOTAL OF          8 INNER ITERATIONS.
    ------------------------------------------------

 NO OUTPUT CONTROL FOR STRESS PERIOD   26   TIME STEP    7

 WELLS WITH REDUCED PUMPING FOR STRESS PERIOD    26 TIME STEP     7
   LAY   ROW   COL         APPL.Q          ACT.Q        GW-HEAD       CELL-BOT
     1    92    77  -0.230952E+04  -0.500954E+03  -0.857516E+02  -0.930000E+02


 SOLVING FOR HEAD 
                                                   Max.-Head-Change                        Max.-Flux-Residual
  Residual-Control   Outer-Iter.   Inner-Iter.     Column Row Layer    Max.-Head-Change    Column Row Layer    Max.-Flux-Residual            L2-New               L2-Old           Solver-Max-Delh
          0                 1           3            54   88     1       0.1574480594E+01      77   94    1      -0.2014338934E+04      0.1245373924E+05      0.6511501916E+02      0.1574480594E+01
          0                 2           2            54   88     1      -0.1378533828E+00      77   94    1       0.2013411562E+03      0.1245829020E+04      0.1245373924E+05     -0.1378533828E+00
          0                 3           2           457  456     1       0.6656974610E-01      77   94    1       0.1006638985E+02      0.6229403166E+02      0.1245829020E+04      0.6656974610E-01

    ------------------------------------------------
       NWT REQUIRED            3 OUTER ITERATIONS 
       AND A TOTAL OF          7 INNER ITERATIONS.
    ------------------------------------------------

 NO OUTPUT CONTROL FOR STRESS PERIOD   26   TIME STEP    8

 WELLS WITH REDUCED PUMPING FOR STRESS PERIOD    26 TIME STEP     8
   LAY   ROW   COL         APPL.Q          ACT.Q        GW-HEAD       CELL-BOT
     1    92    77  -0.230952E+04  -0.497283E+03  -0.857820E+02  -0.930000E+02


 SOLVING FOR HEAD 
                                                   Max.-Head-Change                        Max.-Flux-Residual
  Residual-Control   Outer-Iter.   Inner-Iter.     Column Row Layer    Max.-Head-Change    Column Row Layer    Max.-Flux-Residual            L2-New               L2-Old           Solver-Max-Delh
          0                 1           3            54   88     1       0.1552562743E+01      77   94    1      -0.2012825757E+04      0.1216449196E+05      0.6229403166E+02      0.1552562743E+01
          0                 2           2            54   88     1      -0.1359057745E+00      77   94    1       0.2011899695E+03      0.1216949439E+04      0.1216449196E+05     -0.1359057745E+00
          0                 3           2           457  456     1       0.6639624647E-01      77   94    1       0.1005883165E+02      0.6085067667E+02      0.1216949439E+04      0.6639624647E-01

    ------------------------------------------------
       NWT REQUIRED            3 OUTER ITERATIONS 
       AND A TOTAL OF          7 INNER ITERATIONS.
    ------------------------------------------------

 NO OUTPUT CONTROL FOR STRESS PERIOD   26   TIME STEP    9

 WELLS WITH REDUCED PUMPING FOR STRESS PERIOD    26 TIME STEP     9
   LAY   ROW   COL         APPL.Q          ACT.Q        GW-HEAD       CELL-BOT
     1    92    77  -0.230952E+04  -0.495346E+03  -0.857981E+02  -0.930000E+02


 SOLVING FOR HEAD 
                                                   Max.-Head-Change                        Max.-Flux-Residual
  Residual-Control   Outer-Iter.   Inner-Iter.     Column Row Layer    Max.-Head-Change    Column Row Layer    Max.-Flux-Residual            L2-New               L2-Old           Solver-Max-Delh
          0                 1           3            54   88     1       0.1530639208E+01      77   94    1      -0.2011314522E+04      0.1191035987E+05      0.6085067667E+02      0.1530639208E+01
          0                 2           2            54   88     1      -0.1339584304E+00      77   94    1       0.2010389768E+03      0.1201534466E+04      0.1191035987E+05     -0.1339584304E+00
          0                 3           2           457  456     1       0.6621513884E-01      77   94    1       0.1005128254E+02      0.6007978551E+02      0.1201534466E+04      0.6621513884E-01

    ------------------------------------------------
       NWT REQUIRED            3 OUTER ITERATIONS 
       AND A TOTAL OF          7 INNER ITERATIONS.
    ------------------------------------------------

 OUTPUT CONTROL FOR STRESS PERIOD   26   TIME STEP   10
    SAVE HEAD FOR ALL LAYERS

 WELLS WITH REDUCED PUMPING FOR STRESS PERIOD    26 TIME STEP    10
   LAY   ROW   COL         APPL.Q          ACT.Q        GW-HEAD       CELL-BOT
     1    92    77  -0.230952E+04  -0.494304E+03  -0.858068E+02  -0.930000E+02


 HEAD WILL BE SAVED ON UNIT   51 AT END OF TIME STEP   10, STRESS PERIOD   26
1
  VOLUMETRIC BUDGET FOR ENTIRE MODEL AT END OF TIME STEP   10, STRESS PERIOD  26
  ------------------------------------------------------------------------------

     CUMULATIVE VOLUMES      L**3       RATES FOR THIS TIME STEP      L**3/T
     ------------------                 ------------------------

           IN:                                      IN:
           ---                                      ---
             STORAGE =   333838720.0000               STORAGE =      228903.3750
       CONSTANT HEAD =    39017492.0000         CONSTANT HEAD =       51357.2734
               WELLS =           0.0000                 WELLS =           0.0000
              DRAINS =           0.0000                DRAINS =           0.0000
                  ET =           0.0000                    ET =           0.0000
            RECHARGE =   128955576.0000              RECHARGE =      510399.4062

            TOTAL IN =   501811808.0000              TOTAL IN =      790660.0625

          OUT:                                     OUT:
          ----                                     ----
             STORAGE =   113660216.0000               STORAGE =      244096.4844
       CONSTANT HEAD =           0.0000         CONSTANT HEAD =           0.0000
               WELLS =   265084192.0000                 WELLS =      404998.1562
              DRAINS =    84055360.0000                DRAINS =       99875.7188
                  ET =    38362500.0000                    ET =       41693.4453
            RECHARGE =       81860.0000              RECHARGE =           0.0000

           TOTAL OUT =   501244128.0000             TOTAL OUT =      790663.8125

            IN - OUT =      567680.0000              IN - OUT =          -3.7500

 PERCENT DISCREPANCY =           0.11     PERCENT DISCREPANCY =          -0.00






         TIME SUMMARY AT END OF TIME STEP   10 IN STRESS PERIOD   26
                    SECONDS     MINUTES      HOURS       DAYS        YEARS
                    -----------------------------------------------------------
   TIME STEP LENGTH 2.62656E+05  4377.6      72.960      3.0400     8.32307E-03
 STRESS PERIOD TIME 2.62656E+06  43776.      729.60      30.400     8.32307E-02
         TOTAL TIME 6.82904E+07 1.13817E+06  18970.      790.40      2.1640    
1
1
                            STRESS PERIOD NO.   27, LENGTH =   30.40000    
                            -----------------------------------------------

                              NUMBER OF TIME STEPS =    10

                               MULTIPLIER FOR DELT =     1.000

                            INITIAL TIME STEP SIZE =   3.040000    

 WELL NO.  LAYER   ROW   COL   STRESS RATE         
 --------------------------------------------------
      1      1     69    225      -2246.    
      2      1     71    224       0.000    
      3      1     74    220       0.000    
      4      1     73    220       0.000    
      5      1     71    223       0.000    
      6      1     71    223       0.000    
      7      1     72    223       0.000    
      8      1     92    173       0.000    
      9      1     94    174       0.000    
     10      1     93    175       0.000    
     11      1    203    328       0.000    
     12      1    438    460      -2014.    
     13      1    436    461      -2014.    
     14      1    410    454      -2014.    
     15      1    433    460      -2014.    
     16      1    431    462      -2014.    
     17      1    417    459      -2014.    
     18      1    418    458      -2014.    
     19      1    414    455      -2014.    
     20      1    443    464      -2014.    
     21      1    379    425      -2014.    
     22      1    362    405      -2014.    
     23      1    361    405      -2014.    
     24      1    362    406      -2014.    
     25      1    363    408      -2014.    
     26      1    364    410      -2014.    
     27      1    369    418      -2014.    
     28      1    367    417      -2014.    
     29      1    365    415      -2014.    
     30      1    402    447      -2014.    
     31      1    400    446      -2014.    
     32      1    392    444      -2014.    
     33      1    391    441      -2014.    
     34      1    403    448      -2014.    
     35      1    405    447      -2014.    
     36      1    362    410      -2014.    
     37      1    362    411      -2014.    
     38      1    363    412      -2014.    
     39      1    375    421      -2014.    
     40      1    383    430      -2014.    
     41      1    397    445      -2014.    
     42      1    360    403      -2014.    
     43      1    350    401      -2014.    
     44      1    346    393      -2193.    
     45      1    333    387      -2193.    
     46      1    328    384      -2193.    
     47      1    326    383      -2193.    
     48      1    323    378      -2193.    
     49      1    321    378      -2193.    
     50      1    322    376      -2193.    
     51      1    316    374      -2193.    
     52      1    311    371      -2193.    
     53      1    307    369      -2193.    
     54      1    305    368      -2193.    
     55      1    303    368      -2193.    
     56      1    300    369      -2193.    
     57      1    293    364      -2193.    
     58      1    292    362      -2193.    
     59      1    278    350      -2193.    
     60      1    274    351      -2193.    
     61      1    273    350      -2193.    
     62      1    271    350      -2193.    
     63      1    267    348      -2193.    
     64      1    263    348      -2193.    
     65      1    263    348      -2193.    
     66      1    248    347      -2193.    
     67      1    243    342      -2193.    
     68      1    242    339      -2193.    
     69      1    238    341      -2193.    
     70      1    233    340      -2193.    
     71      1    232    340      -2193.    
     72      1    229    341      -2193.    
     73      1    227    341      -2193.    
     74      1    219    342      -2193.    
     75      1    219    336      -2193.    
     76      1    199    329      -2193.    
     77      1    191    332      -494.8    
     78      1    190    332      -494.8    
     79      1    130    310      -494.8    
     80      1    123    305      -494.8    
     81      1    104    289      -494.8    
     82      1     96    287      -3788.    
     83      1     95    284      -3788.    
     84      1     95    280      -3788.    
     85      1     93    276      -3788.    
     86      1     94    275      -3788.    
     87      1     90    277      -3788.    
     88      1     90    273      -3788.    
     89      1     86    271      -3788.    
     90      1     85    270      -3788.    
     91      1     84    265      -3788.    
     92      1     85    265      -3788.    
     93      1     84    264      -3788.    
     94      1     79    263      -3788.    
     95      1     79    263      -3788.    
     96      1     76    262      -3788.    
     97      1     73    257      -3788.    
     98      1     74    255      -3788.    
     99      1     71    255      -3788.    
    100      1     66    253      -3788.    
    101      1     68    252      -3788.    
    102      1     69    250      -3788.    
    103      1     65    248      -3788.    
    104      1     68    248      -3788.    
    105      1     69    247      -3788.    
    106      1     73    247      -3788.    
    107      1     64    246      -3788.    
    108      1     69    245      -3788.    
    109      1     72    245      -3788.    
    110      1     69    241      -3788.    
    111      1     73    238      -3788.    
    112      1     70    238      -3788.    
    113      1     76    263      -3788.    
    114      1     66    232      -2343.    
    115      1     69    229      -2343.    
    116      1     71    228      -2343.    
    117      1     69    227      -2343.    
    118      1     72    219      -2343.    
    119      1     72    218      -2343.    
    120      1     72    218      -2343.    
    121      1     73    217      -2343.    
    122      1     77    219      -2343.    
    123      1     78    219      -2343.    
    124      1     83    213      -2343.    
    125      1     77    213      -2343.    
    126      1     81    211      -2343.    
    127      1     81    210      -2343.    
    128      1     81    210      -2343.    
    129      1     82    208      -2343.    
    130      1     80    205      -2343.    
    131      1     86    202      -2343.    
    132      1     84    200      -2343.    
    133      1     89    200      -2343.    
    134      1     89    199      -2343.    
    135      1     88    199      -2343.    
    136      1     86    199      -2343.    
    137      1     85    199      -2343.    
    138      1     82    197      -2343.    
    139      1     86    197      -2343.    
    140      1     88    198      -2343.    
    141      1     90    192      -2343.    
    142      1     89    191      -2343.    
    143      1     84    192      -2343.    
    144      1     91    189      -2343.    
    145      1     92    185      -2343.    
    146      1     87    183      -2343.    
    147      1     92    182      -2343.    
    148      1     90    182      -2343.    
    149      1     88    179      -2343.    
    150      1     89    176      -2343.    
    151      1     92    172      -2343.    
    152      1     93    164      -2343.    
    153      1     94    162      -2343.    
    154      1    103    156      -2343.    
    155      1    103    156      -2343.    
    156      1     96    154      -2343.    
    157      1     97    153      -2343.    
    158      1    122    139      -2343.    
    159      1     92     77      -2343.    
    160      1     94     77      -2343.    
    161      1     94     73      -2343.    
    162      1     97    152      -2343.    
    163      1    118    337      -666.7    
    164      1    133    319      -2678.    
    165      1    131    320      -3951.    
    166      1    133    321      -2956.    
    167      1    161    329      -2141.    
    168      1    178    330      -551.0    
    169      1    163    330      -1122.    
    170      1    131    320      -2473.    
    171      1    129    315      -3937.    
    172      1    162    329      -1959.    
    173      1    131    311      -826.1    
    174      1    221    340      -1994.    
    175      1    220    340      -1034.    
    176      1    221    340      -667.7    
    177      1    137    322      -2082.    
    178      1    137    321      -1407.    
    179      1    185    329      -2012.    
    180      1    183    329      -1473.    
    181      1    175    329      -585.3    
    182      1     79    243      -1490.    
    183      1     77    245      -2414.    
    184      1    199    329      -1617.    
    185      1    198    330      -2514.    
    186      1    140    328      -972.1    
    187      1    143    327      -863.6    
    188      1    139    327      -1331.    

    188 WELLS

 REUSING NON-PARAMETER DRAINS FROM LAST STRESS PERIOD

   1061 DRAINS

 REUSING SURF FROM LAST STRESS PERIOD

 REUSING EVTR FROM LAST STRESS PERIOD

 REUSING EXDP FROM LAST STRESS PERIOD



                           RECHARGE
 READING ON UNIT   19 WITH FORMAT: (510E15.6)          

 SOLVING FOR HEAD 
                                                   Max.-Head-Change                        Max.-Flux-Residual
  Residual-Control   Outer-Iter.   Inner-Iter.     Column Row Layer    Max.-Head-Change    Column Row Layer    Max.-Flux-Residual            L2-New               L2-Old           Solver-Max-Delh
          0                 1           3           263   79     1       0.2600267189E+01      77   94    1      -0.2043204749E+04      0.1272783572E+05      0.6007978551E+02      0.2600267189E+01
          0                 2           2           263   79     1      -0.2254184475E+00      77   94    1       0.2042250409E+03      0.1272802724E+04      0.1272783572E+05     -0.2254184475E+00
          0                 3           2           457  456     1       0.6602647527E-01      77   94    1       0.1021055138E+02      0.6368622040E+02      0.1272802724E+04      0.6602647527E-01

    ------------------------------------------------
       NWT REQUIRED            3 OUTER ITERATIONS 
       AND A TOTAL OF          7 INNER ITERATIONS.
    ------------------------------------------------

 NO OUTPUT CONTROL FOR STRESS PERIOD   27   TIME STEP    1

 WELLS WITH REDUCED PUMPING FOR STRESS PERIOD    27 TIME STEP     1
   LAY   ROW   COL         APPL.Q          ACT.Q        GW-HEAD       CELL-BOT
     1    92    77  -0.234339E+04  -0.497759E+03  -0.858379E+02  -0.930000E+02


 SOLVING FOR HEAD 
                                                   Max.-Head-Change                        Max.-Flux-Residual
  Residual-Control   Outer-Iter.   Inner-Iter.     Column Row Layer    Max.-Head-Change    Column Row Layer    Max.-Flux-Residual            L2-New               L2-Old           Solver-Max-Delh
          0                 1           3           263   79     1       0.8911088400E+00      77   94    1      -0.2041670302E+04      0.1172542935E+05      0.6368622040E+02      0.8911088400E+00
          0                 2           2           205   74     1      -0.9953688483E-01      77   94    1       0.2040717308E+03      0.1175967799E+04      0.1172542935E+05     -0.9953688483E-01

    ------------------------------------------------
       NWT REQUIRED            2 OUTER ITERATIONS 
       AND A TOTAL OF          5 INNER ITERATIONS.
    ------------------------------------------------

 NO OUTPUT CONTROL FOR STRESS PERIOD   27   TIME STEP    2

 WELLS WITH REDUCED PUMPING FOR STRESS PERIOD    27 TIME STEP     2
   LAY   ROW   COL         APPL.Q          ACT.Q        GW-HEAD       CELL-BOT
     1    92    77  -0.234339E+04  -0.495761E+03  -0.858543E+02  -0.930000E+02


 SOLVING FOR HEAD 
                                                   Max.-Head-Change                        Max.-Flux-Residual
  Residual-Control   Outer-Iter.   Inner-Iter.     Column Row Layer    Max.-Head-Change    Column Row Layer    Max.-Flux-Residual            L2-New               L2-Old           Solver-Max-Delh
          0                 1           3            77   94     1      -0.8492934595E+00      77   94    1      -0.2040130601E+04      0.1143718020E+05      0.5895249170E+02     -0.8492934595E+00
          0                 2           2            54   88     1      -0.1869098391E+00      77   94    1       0.2039178955E+03      0.1149288495E+04      0.1143718020E+05     -0.1869098391E+00
          0                 3           2           457  456     1       0.6592585093E-01      77   94    1       0.1019520442E+02      0.5756105428E+02      0.1149288495E+04      0.6592585093E-01

    ------------------------------------------------
       NWT REQUIRED            3 OUTER ITERATIONS 
       AND A TOTAL OF          7 INNER ITERATIONS.
    ------------------------------------------------

 NO OUTPUT CONTROL FOR STRESS PERIOD   27   TIME STEP    3

 WELLS WITH REDUCED PUMPING FOR STRESS PERIOD    27 TIME STEP     3
   LAY   ROW   COL         APPL.Q          ACT.Q        GW-HEAD       CELL-BOT
     1    92    77  -0.234339E+04  -0.494703E+03  -0.858630E+02  -0.930000E+02


 SOLVING FOR HEAD 
                                                   Max.-Head-Change                        Max.-Flux-Residual
  Residual-Control   Outer-Iter.   Inner-Iter.     Column Row Layer    Max.-Head-Change    Column Row Layer    Max.-Flux-Residual            L2-New               L2-Old           Solver-Max-Delh
          0                 1           3            77   94     1      -0.8486893451E+00      77   94    1      -0.2038600123E+04      0.1121715906E+05      0.5756105428E+02     -0.8486893451E+00
          0                 2           2            77   94     1       0.7326793419E-01      77   94    1       0.2037649817E+03      0.1123240418E+04      0.1121715906E+05      0.7326793419E-01

    ------------------------------------------------
       NWT REQUIRED            2 OUTER ITERATIONS 
       AND A TOTAL OF          5 INNER ITERATIONS.
    ------------------------------------------------

 NO OUTPUT CONTROL FOR STRESS PERIOD   27   TIME STEP    4

 WELLS WITH REDUCED PUMPING FOR STRESS PERIOD    27 TIME STEP     4
   LAY   ROW   COL         APPL.Q          ACT.Q        GW-HEAD       CELL-BOT
     1    92    77  -0.234339E+04  -0.494115E+03  -0.858678E+02  -0.930000E+02


 SOLVING FOR HEAD 
                                                   Max.-Head-Change                        Max.-Flux-Residual
  Residual-Control   Outer-Iter.   Inner-Iter.     Column Row Layer    Max.-Head-Change    Column Row Layer    Max.-Flux-Residual            L2-New               L2-Old           Solver-Max-Delh
          0                 1           3            77   94     1      -0.8480831364E+00      77   94    1      -0.2037064407E+04      0.1102233534E+05      0.5616635289E+02     -0.8480831364E+00
          0                 2           2            77   94     1       0.7321561798E-01      77   94    1       0.2036115443E+03      0.1102964792E+04      0.1102233534E+05      0.7321561798E-01

    ------------------------------------------------
       NWT REQUIRED            2 OUTER ITERATIONS 
       AND A TOTAL OF          5 INNER ITERATIONS.
    ------------------------------------------------

 NO OUTPUT CONTROL FOR STRESS PERIOD   27   TIME STEP    5

 WELLS WITH REDUCED PUMPING FOR STRESS PERIOD    27 TIME STEP     5
   LAY   ROW   COL         APPL.Q          ACT.Q        GW-HEAD       CELL-BOT
     1    92    77  -0.234339E+04  -0.493771E+03  -0.858706E+02  -0.930000E+02


 SOLVING FOR HEAD 
                                                   Max.-Head-Change                        Max.-Flux-Residual
  Residual-Control   Outer-Iter.   Inner-Iter.     Column Row Layer    Max.-Head-Change    Column Row Layer    Max.-Flux-Residual            L2-New               L2-Old           Solver-Max-Delh
          0                 1           3            77   94     1      -0.8474776965E+00      77   94    1      -0.2035530704E+04      0.1084335028E+05      0.5515041676E+02     -0.8474776965E+00
          0                 2           2            77   94     1       0.7316336793E-01      77   94    1       0.2034583081E+03      0.1084608529E+04      0.1084335028E+05      0.7316336793E-01

    ------------------------------------------------
       NWT REQUIRED            2 OUTER ITERATIONS 
       AND A TOTAL OF          5 INNER ITERATIONS.
    ------------------------------------------------

 NO OUTPUT CONTROL FOR STRESS PERIOD   27   TIME STEP    6

 WELLS WITH REDUCED PUMPING FOR STRESS PERIOD    27 TIME STEP     6
   LAY   ROW   COL         APPL.Q          ACT.Q        GW-HEAD       CELL-BOT
     1    92    77  -0.234339E+04  -0.493553E+03  -0.858724E+02  -0.930000E+02


 SOLVING FOR HEAD 
                                                   Max.-Head-Change                        Max.-Flux-Residual
  Residual-Control   Outer-Iter.   Inner-Iter.     Column Row Layer    Max.-Head-Change    Column Row Layer    Max.-Flux-Residual            L2-New               L2-Old           Solver-Max-Delh
          0                 1           3            77   94     1      -0.8468730230E+00      77   94    1      -0.2033999010E+04      0.1067483181E+05      0.5423421311E+02     -0.8468730230E+00
          0                 2           2            77   94     1       0.7311118424E-01      77   94    1       0.2033052725E+03      0.1075165920E+04      0.1067483181E+05      0.7311118424E-01

    ------------------------------------------------
       NWT REQUIRED            2 OUTER ITERATIONS 
       AND A TOTAL OF          5 INNER ITERATIONS.
    ------------------------------------------------

 NO OUTPUT CONTROL FOR STRESS PERIOD   27   TIME STEP    7

 WELLS WITH REDUCED PUMPING FOR STRESS PERIOD    27 TIME STEP     7
   LAY   ROW   COL         APPL.Q          ACT.Q        GW-HEAD       CELL-BOT
     1    92    77  -0.234339E+04  -0.493398E+03  -0.858737E+02  -0.930000E+02


 SOLVING FOR HEAD 
                                                   Max.-Head-Change                        Max.-Flux-Residual
  Residual-Control   Outer-Iter.   Inner-Iter.     Column Row Layer    Max.-Head-Change    Column Row Layer    Max.-Flux-Residual            L2-New               L2-Old           Solver-Max-Delh
          0                 1           3            77   94     1      -0.8462691134E+00      77   94    1      -0.2032469316E+04      0.1051589237E+05      0.5378040806E+02     -0.8462691134E+00
          0                 2           2            77   94     1       0.7305906630E-01      77   94    1       0.2031524368E+03      0.1051997458E+04      0.1051589237E+05      0.7305906630E-01

    ------------------------------------------------
       NWT REQUIRED            2 OUTER ITERATIONS 
       AND A TOTAL OF          5 INNER ITERATIONS.
    ------------------------------------------------

 NO OUTPUT CONTROL FOR STRESS PERIOD   27   TIME STEP    8

 WELLS WITH REDUCED PUMPING FOR STRESS PERIOD    27 TIME STEP     8
   LAY   ROW   COL         APPL.Q          ACT.Q        GW-HEAD       CELL-BOT
     1    92    77  -0.234339E+04  -0.493275E+03  -0.858747E+02  -0.930000E+02


 SOLVING FOR HEAD 
                                                   Max.-Head-Change                        Max.-Flux-Residual
  Residual-Control   Outer-Iter.   Inner-Iter.     Column Row Layer    Max.-Head-Change    Column Row Layer    Max.-Flux-Residual            L2-New               L2-Old           Solver-Max-Delh
          0                 1           3            77   94     1      -0.8456659785E+00      77   94    1      -0.2030941650E+04      0.1036626667E+05      0.5260159021E+02     -0.8456659785E+00
          0                 2           2            77   94     1       0.7300701598E-01     457  431    1       0.2375744849E+03      0.1063597763E+04      0.1036626667E+05      0.7300701598E-01

    ------------------------------------------------
       NWT REQUIRED            2 OUTER ITERATIONS 
       AND A TOTAL OF          5 INNER ITERATIONS.
    ------------------------------------------------

 NO OUTPUT CONTROL FOR STRESS PERIOD   27   TIME STEP    9

 WELLS WITH REDUCED PUMPING FOR STRESS PERIOD    27 TIME STEP     9
   LAY   ROW   COL         APPL.Q          ACT.Q        GW-HEAD       CELL-BOT
     1    92    77  -0.234339E+04  -0.493167E+03  -0.858756E+02  -0.930000E+02


 SOLVING FOR HEAD 
                                                   Max.-Head-Change                        Max.-Flux-Residual
  Residual-Control   Outer-Iter.   Inner-Iter.     Column Row Layer    Max.-Head-Change    Column Row Layer    Max.-Flux-Residual            L2-New               L2-Old           Solver-Max-Delh
          0                 1           3            77   94     1      -0.8450636029E+00      77   94    1      -0.2029415974E+04      0.1022320810E+05      0.5318391025E+02     -0.8450636029E+00
          0                 2           2            77   94     1       0.7295503024E-01      77   94    1       0.2028473690E+03      0.1022568493E+04      0.1022320810E+05      0.7295503024E-01

    ------------------------------------------------
       NWT REQUIRED            2 OUTER ITERATIONS 
       AND A TOTAL OF          5 INNER ITERATIONS.
    ------------------------------------------------

 OUTPUT CONTROL FOR STRESS PERIOD   27   TIME STEP   10
    SAVE HEAD FOR ALL LAYERS

 WELLS WITH REDUCED PUMPING FOR STRESS PERIOD    27 TIME STEP    10
   LAY   ROW   COL         APPL.Q          ACT.Q        GW-HEAD       CELL-BOT
     1    92    77  -0.234339E+04  -0.493068E+03  -0.858764E+02  -0.930000E+02


 HEAD WILL BE SAVED ON UNIT   51 AT END OF TIME STEP   10, STRESS PERIOD   27
1
  VOLUMETRIC BUDGET FOR ENTIRE MODEL AT END OF TIME STEP   10, STRESS PERIOD  27
  ------------------------------------------------------------------------------

     CUMULATIVE VOLUMES      L**3       RATES FOR THIS TIME STEP      L**3/T
     ------------------                 ------------------------

           IN:                                      IN:
           ---                                      ---
             STORAGE =   341239872.0000               STORAGE =      235671.0156
       CONSTANT HEAD =    40579724.0000         CONSTANT HEAD =       51414.7305
               WELLS =           0.0000                 WELLS =           0.0000
              DRAINS =           0.0000                DRAINS =           0.0000
                  ET =           0.0000                    ET =           0.0000
            RECHARGE =   141249616.0000              RECHARGE =      404408.1562

            TOTAL IN =   523069184.0000              TOTAL IN =      691493.8750

          OUT:                                     OUT:
          ----                                     ----
             STORAGE =   119146648.0000               STORAGE =      169665.0000
       CONSTANT HEAD =           0.0000         CONSTANT HEAD =           0.0000
               WELLS =   276507712.0000                 WELLS =      375773.3438
              DRAINS =    87134400.0000                DRAINS =      103413.2344
                  ET =    39623140.0000                    ET =       42317.8125
            RECHARGE =       81860.0000              RECHARGE =           0.0000

           TOTAL OUT =   522493760.0000             TOTAL OUT =      691169.4375

            IN - OUT =      575424.0000              IN - OUT =         324.4375

 PERCENT DISCREPANCY =           0.11     PERCENT DISCREPANCY =           0.05






         TIME SUMMARY AT END OF TIME STEP   10 IN STRESS PERIOD   27
                    SECONDS     MINUTES      HOURS       DAYS        YEARS
                    -----------------------------------------------------------
   TIME STEP LENGTH 2.62656E+05  4377.6      72.960      3.0400     8.32307E-03
 STRESS PERIOD TIME 2.62656E+06  43776.      729.60      30.400     8.32307E-02
         TOTAL TIME 7.09170E+07 1.18195E+06  19699.      820.80      2.2472    
1
1
                            STRESS PERIOD NO.   28, LENGTH =   30.40000    
                            -----------------------------------------------

                              NUMBER OF TIME STEPS =    10

                               MULTIPLIER FOR DELT =     1.000

                            INITIAL TIME STEP SIZE =   3.040000    

 WELL NO.  LAYER   ROW   COL   STRESS RATE         
 --------------------------------------------------
      1      1     69    225      -2333.    
      2      1     71    224       0.000    
      3      1     74    220       0.000    
      4      1     73    220       0.000    
      5      1     71    223       0.000    
      6      1     71    223       0.000    
      7      1     72    223       0.000    
      8      1     92    173       0.000    
      9      1     94    174       0.000    
     10      1     93    175       0.000    
     11      1    203    328       0.000    
     12      1    438    460      -0.000    
     13      1    436    461      -0.000    
     14      1    410    454      -0.000    
     15      1    433    460      -0.000    
     16      1    431    462      -0.000    
     17      1    417    459      -0.000    
     18      1    418    458      -0.000    
     19      1    414    455      -0.000    
     20      1    443    464      -0.000    
     21      1    379    425      -0.000    
     22      1    362    405      -0.000    
     23      1    361    405      -0.000    
     24      1    362    406      -0.000    
     25      1    363    408      -0.000    
     26      1    364    410      -0.000    
     27      1    369    418      -0.000    
     28      1    367    417      -0.000    
     29      1    365    415      -0.000    
     30      1    402    447      -0.000    
     31      1    400    446      -0.000    
     32      1    392    444      -0.000    
     33      1    391    441      -0.000    
     34      1    403    448      -0.000    
     35      1    405    447      -0.000    
     36      1    362    410      -0.000    
     37      1    362    411      -0.000    
     38      1    363    412      -0.000    
     39      1    375    421      -0.000    
     40      1    383    430      -0.000    
     41      1    397    445      -0.000    
     42      1    360    403      -0.000    
     43      1    350    401      -0.000    
     44      1    346    393      -49.88    
     45      1    333    387      -49.88    
     46      1    328    384      -49.88    
     47      1    326    383      -49.88    
     48      1    323    378      -49.88    
     49      1    321    378      -49.88    
     50      1    322    376      -49.88    
     51      1    316    374      -49.88    
     52      1    311    371      -49.88    
     53      1    307    369      -49.88    
     54      1    305    368      -49.88    
     55      1    303    368      -49.88    
     56      1    300    369      -49.88    
     57      1    293    364      -49.88    
     58      1    292    362      -49.88    
     59      1    278    350      -49.88    
     60      1    274    351      -49.88    
     61      1    273    350      -49.88    
     62      1    271    350      -49.88    
     63      1    267    348      -49.88    
     64      1    263    348      -49.88    
     65      1    263    348      -49.88    
     66      1    248    347      -49.88    
     67      1    243    342      -49.88    
     68      1    242    339      -49.88    
     69      1    238    341      -49.88    
     70      1    233    340      -49.88    
     71      1    232    340      -49.88    
     72      1    229    341      -49.88    
     73      1    227    341      -49.88    
     74      1    219    342      -49.88    
     75      1    219    336      -49.88    
     76      1    199    329      -49.88    
     77      1    191    332      -0.000    
     78      1    190    332      -0.000    
     79      1    130    310      -0.000    
     80      1    123    305      -0.000    
     81      1    104    289      -0.000    
     82      1     96    287      -510.6    
     83      1     95    284      -510.6    
     84      1     95    280      -510.6    
     85      1     93    276      -510.6    
     86      1     94    275      -510.6    
     87      1     90    277      -510.6    
     88      1     90    273      -510.6    
     89      1     86    271      -510.6    
     90      1     85    270      -510.6    
     91      1     84    265      -510.6    
     92      1     85    265      -510.6    
     93      1     84    264      -510.6    
     94      1     79    263      -510.6    
     95      1     79    263      -510.6    
     96      1     76    262      -510.6    
     97      1     73    257      -510.6    
     98      1     74    255      -510.6    
     99      1     71    255      -510.6    
    100      1     66    253      -510.6    
    101      1     68    252      -510.6    
    102      1     69    250      -510.6    
    103      1     65    248      -510.6    
    104      1     68    248      -510.6    
    105      1     69    247      -510.6    
    106      1     73    247      -510.6    
    107      1     64    246      -510.6    
    108      1     69    245      -510.6    
    109      1     72    245      -510.6    
    110      1     69    241      -510.6    
    111      1     73    238      -510.6    
    112      1     70    238      -510.6    
    113      1     76    263      -510.6    
    114      1     66    232      -620.9    
    115      1     69    229      -620.9    
    116      1     71    228      -620.9    
    117      1     69    227      -620.9    
    118      1     72    219      -620.9    
    119      1     72    218      -620.9    
    120      1     72    218      -620.9    
    121      1     73    217      -620.9    
    122      1     77    219      -620.9    
    123      1     78    219      -620.9    
    124      1     83    213      -620.9    
    125      1     77    213      -620.9    
    126      1     81    211      -620.9    
    127      1     81    210      -620.9    
    128      1     81    210      -620.9    
    129      1     82    208      -620.9    
    130      1     80    205      -620.9    
    131      1     86    202      -620.9    
    132      1     84    200      -620.9    
    133      1     89    200      -620.9    
    134      1     89    199      -620.9    
    135      1     88    199      -620.9    
    136      1     86    199      -620.9    
    137      1     85    199      -620.9    
    138      1     82    197      -620.9    
    139      1     86    197      -620.9    
    140      1     88    198      -620.9    
    141      1     90    192      -620.9    
    142      1     89    191      -620.9    
    143      1     84    192      -620.9    
    144      1     91    189      -620.9    
    145      1     92    185      -620.9    
    146      1     87    183      -620.9    
    147      1     92    182      -620.9    
    148      1     90    182      -620.9    
    149      1     88    179      -620.9    
    150      1     89    176      -620.9    
    151      1     92    172      -620.9    
    152      1     93    164      -620.9    
    153      1     94    162      -620.9    
    154      1    103    156      -620.9    
    155      1    103    156      -620.9    
    156      1     96    154      -620.9    
    157      1     97    153      -620.9    
    158      1    122    139      -620.9    
    159      1     92     77      -620.9    
    160      1     94     77      -620.9    
    161      1     94     73      -620.9    
    162      1     97    152      -620.9    
    163      1    118    337      -666.7    
    164      1    133    319      -2678.    
    165      1    131    320      -3951.    
    166      1    133    321      -2956.    
    167      1    161    329      -2141.    
    168      1    178    330      -551.0    
    169      1    163    330      -1122.    
    170      1    131    320      -2473.    
    171      1    129    315      -3937.    
    172      1    162    329      -1959.    
    173      1    131    311      -826.1    
    174      1    221    340      -1994.    
    175      1    220    340      -1034.    
    176      1    221    340      -667.7    
    177      1    137    322      -2082.    
    178      1    137    321      -1407.    
    179      1    185    329      -2012.    
    180      1    183    329      -1473.    
    181      1    175    329      -585.3    
    182      1     79    243      -1490.    
    183      1     77    245      -2414.    
    184      1    199    329      -1617.    
    185      1    198    330      -2514.    
    186      1    140    328      -972.1    
    187      1    143    327      -863.6    
    188      1    139    327      -1331.    

    188 WELLS

 REUSING NON-PARAMETER DRAINS FROM LAST STRESS PERIOD

   1061 DRAINS

 REUSING SURF FROM LAST STRESS PERIOD

 REUSING EVTR FROM LAST STRESS PERIOD

 REUSING EXDP FROM LAST STRESS PERIOD



                           RECHARGE
 READING ON UNIT   19 WITH FORMAT: (510E15.6)          

 SOLVING FOR HEAD 
                                                   Max.-Head-Change                        Max.-Flux-Residual
  Residual-Control   Outer-Iter.   Inner-Iter.     Column Row Layer    Max.-Head-Change    Column Row Layer    Max.-Flux-Residual            L2-New               L2-Old           Solver-Max-Delh
          0                 1           3           263   79     1       0.1882631260E+02     263   79    1       0.6514969177E+04      0.2759143092E+05      0.5112991083E+02      0.1882631260E+02
          0                 2           2           263   79     1      -0.1796684530E+01     263   79    1      -0.7440596906E+03      0.2869144858E+04      0.2759143092E+05     -0.1796684530E+01
          0                 3           2           263   79     1      -0.9175943316E-01     263   79    1      -0.3796926661E+02      0.1446478796E+03      0.2869144858E+04     -0.9175943316E-01

    ------------------------------------------------
       NWT REQUIRED            3 OUTER ITERATIONS 
       AND A TOTAL OF          7 INNER ITERATIONS.
    ------------------------------------------------

 NO OUTPUT CONTROL FOR STRESS PERIOD   28   TIME STEP    1

 WELLS WITH REDUCED PUMPING FOR STRESS PERIOD    28 TIME STEP     1
   LAY   ROW   COL         APPL.Q          ACT.Q        GW-HEAD       CELL-BOT
     1    92    77  -0.620891E+03  -0.198994E+03  -0.838912E+02  -0.930000E+02


 SOLVING FOR HEAD 
                                                   Max.-Head-Change                        Max.-Flux-Residual
  Residual-Control   Outer-Iter.   Inner-Iter.     Column Row Layer    Max.-Head-Change    Column Row Layer    Max.-Flux-Residual            L2-New               L2-Old           Solver-Max-Delh
          0                 1           3           263   79     1       0.7439625023E+01     156  103    1       0.2572158610E+04      0.1413301316E+05      0.1446478796E+03      0.7439625023E+01
          0                 2           2           263   79     1      -0.6811303416E+00     263   79    1      -0.2664524808E+03      0.1444800611E+04      0.1413301316E+05     -0.6811303416E+00
          0                 3           2           457  456     1       0.6586198096E-01     263   79    1      -0.1349606305E+02      0.7251330170E+02      0.1444800611E+04      0.6586198096E-01

    ------------------------------------------------
       NWT REQUIRED            3 OUTER ITERATIONS 
       AND A TOTAL OF          7 INNER ITERATIONS.
    ------------------------------------------------

 NO OUTPUT CONTROL FOR STRESS PERIOD   28   TIME STEP    2

 WELLS WITH REDUCED PUMPING FOR STRESS PERIOD    28 TIME STEP     2
   LAY   ROW   COL         APPL.Q          ACT.Q        GW-HEAD       CELL-BOT
     1    92    77  -0.620891E+03  -0.255612E+03  -0.823741E+02  -0.930000E+02


 SOLVING FOR HEAD 
                                                   Max.-Head-Change                        Max.-Flux-Residual
  Residual-Control   Outer-Iter.   Inner-Iter.     Column Row Layer    Max.-Head-Change    Column Row Layer    Max.-Flux-Residual            L2-New               L2-Old           Solver-Max-Delh
          0                 1           3           263   79     1       0.3209641172E+01     156  103    1       0.2083004920E+04      0.1204001642E+05      0.7251330170E+02      0.3209641172E+01
          0                 2           2           263   79     1      -0.2873622406E+00     156  103    1      -0.2084311824E+03      0.1219110729E+04      0.1204001642E+05     -0.2873622406E+00
          0                 3           2           457  456     1       0.6554227311E-01     156  103    1      -0.1042252903E+02      0.6099358371E+02      0.1219110729E+04      0.6554227311E-01

    ------------------------------------------------
       NWT REQUIRED            3 OUTER ITERATIONS 
       AND A TOTAL OF          7 INNER ITERATIONS.
    ------------------------------------------------

 NO OUTPUT CONTROL FOR STRESS PERIOD   28   TIME STEP    3

 WELLS WITH REDUCED PUMPING FOR STRESS PERIOD    28 TIME STEP     3
   LAY   ROW   COL         APPL.Q          ACT.Q        GW-HEAD       CELL-BOT
     1    92    77  -0.620891E+03  -0.299884E+03  -0.812217E+02  -0.930000E+02


 SOLVING FOR HEAD 
                                                   Max.-Head-Change                        Max.-Flux-Residual
  Residual-Control   Outer-Iter.   Inner-Iter.     Column Row Layer    Max.-Head-Change    Column Row Layer    Max.-Flux-Residual            L2-New               L2-Old           Solver-Max-Delh
          0                 1           3           263   79     1       0.1548889862E+01     156  103    1       0.1701255577E+04      0.1105800581E+05      0.6099358371E+02      0.1548889862E+01
          0                 2           2           263   79     1      -0.1357869128E+00     156  103    1      -0.1702366153E+03      0.1106725630E+04      0.1105800581E+05     -0.1357869128E+00
          0                 3           2           457  456     1       0.6520778606E-01     156  103    1      -0.8512655166E+01      0.5534400633E+02      0.1106725630E+04      0.6520778606E-01

    ------------------------------------------------
       NWT REQUIRED            3 OUTER ITERATIONS 
       AND A TOTAL OF          7 INNER ITERATIONS.
    ------------------------------------------------

 NO OUTPUT CONTROL FOR STRESS PERIOD   28   TIME STEP    4

 WELLS WITH REDUCED PUMPING FOR STRESS PERIOD    28 TIME STEP     4
   LAY   ROW   COL         APPL.Q          ACT.Q        GW-HEAD       CELL-BOT
     1    92    77  -0.620891E+03  -0.333647E+03  -0.803473E+02  -0.930000E+02


 SOLVING FOR HEAD 
                                                   Max.-Head-Change                        Max.-Flux-Residual
  Residual-Control   Outer-Iter.   Inner-Iter.     Column Row Layer    Max.-Head-Change    Column Row Layer    Max.-Flux-Residual            L2-New               L2-Old           Solver-Max-Delh
          0                 1           3           264   78     1       0.1067112654E+01     156  103    1       0.1401181443E+04      0.1044350979E+05      0.5534400633E+02      0.1067112654E+01
          0                 2           2           264   78     1      -0.9356664349E-01     460  429    1       0.2138597221E+03      0.1068043186E+04      0.1044350979E+05     -0.9356664349E-01

    ------------------------------------------------
       NWT REQUIRED            2 OUTER ITERATIONS 
       AND A TOTAL OF          5 INNER ITERATIONS.
    ------------------------------------------------

 NO OUTPUT CONTROL FOR STRESS PERIOD   28   TIME STEP    5

 WELLS WITH REDUCED PUMPING FOR STRESS PERIOD    28 TIME STEP     5
   LAY   ROW   COL         APPL.Q          ACT.Q        GW-HEAD       CELL-BOT
     1    92    77  -0.620891E+03  -0.359262E+03  -0.796802E+02  -0.930000E+02


 SOLVING FOR HEAD 
                                                   Max.-Head-Change                        Max.-Flux-Residual
  Residual-Control   Outer-Iter.   Inner-Iter.     Column Row Layer    Max.-Head-Change    Column Row Layer    Max.-Flux-Residual            L2-New               L2-Old           Solver-Max-Delh
          0                 1           3           264   78     1       0.8798078578E+00     383  326    1       0.1212150460E+04      0.1000166854E+05      0.5340749215E+02      0.8798078578E+00
          0                 2           2           264   78     1      -0.7747168666E-01     383  326    1      -0.1212928631E+03      0.1001797007E+04      0.1000166854E+05     -0.7747168666E-01

    ------------------------------------------------
       NWT REQUIRED            2 OUTER ITERATIONS 
       AND A TOTAL OF          5 INNER ITERATIONS.
    ------------------------------------------------

 NO OUTPUT CONTROL FOR STRESS PERIOD   28   TIME STEP    6

 WELLS WITH REDUCED PUMPING FOR STRESS PERIOD    28 TIME STEP     6
   LAY   ROW   COL         APPL.Q          ACT.Q        GW-HEAD       CELL-BOT
     1    92    77  -0.620891E+03  -0.378523E+03  -0.791736E+02  -0.930000E+02


 SOLVING FOR HEAD 
                                                   Max.-Head-Change                        Max.-Flux-Residual
  Residual-Control   Outer-Iter.   Inner-Iter.     Column Row Layer    Max.-Head-Change    Column Row Layer    Max.-Flux-Residual            L2-New               L2-Old           Solver-Max-Delh
          0                 1           3           264   78     1       0.7156116609E+00     383  326    1       0.1108105378E+04      0.9661057243E+04      0.5009031425E+02      0.7156116609E+00
          0                 2           2           457  456     1       0.6513717898E-01     383  326    1      -0.1108814568E+03      0.9664789734E+03      0.9661057243E+04      0.6513717898E-01

    ------------------------------------------------
       NWT REQUIRED            2 OUTER ITERATIONS 
       AND A TOTAL OF          5 INNER ITERATIONS.
    ------------------------------------------------

 NO OUTPUT CONTROL FOR STRESS PERIOD   28   TIME STEP    7

 WELLS WITH REDUCED PUMPING FOR STRESS PERIOD    28 TIME STEP     7
   LAY   ROW   COL         APPL.Q          ACT.Q        GW-HEAD       CELL-BOT
     1    92    77  -0.620891E+03  -0.393013E+03  -0.787883E+02  -0.930000E+02


 SOLVING FOR HEAD 
                                                   Max.-Head-Change                        Max.-Flux-Residual
  Residual-Control   Outer-Iter.   Inner-Iter.     Column Row Layer    Max.-Head-Change    Column Row Layer    Max.-Flux-Residual            L2-New               L2-Old           Solver-Max-Delh
          0                 1           3           264   78     1       0.5838929102E+00     383  326    1       0.1017094825E+04      0.9369045643E+04      0.4832618512E+02      0.5838929102E+00
          0                 2           2           457  456     1       0.6508906698E-01     383  326    1      -0.1017734976E+03      0.9372823419E+03      0.9369045643E+04      0.6508906698E-01

    ------------------------------------------------
       NWT REQUIRED            2 OUTER ITERATIONS 
       AND A TOTAL OF          5 INNER ITERATIONS.
    ------------------------------------------------

 NO OUTPUT CONTROL FOR STRESS PERIOD   28   TIME STEP    8

 WELLS WITH REDUCED PUMPING FOR STRESS PERIOD    28 TIME STEP     8
   LAY   ROW   COL         APPL.Q          ACT.Q        GW-HEAD       CELL-BOT
     1    92    77  -0.620891E+03  -0.403929E+03  -0.784950E+02  -0.930000E+02


 SOLVING FOR HEAD 
                                                   Max.-Head-Change                        Max.-Flux-Residual
  Residual-Control   Outer-Iter.   Inner-Iter.     Column Row Layer    Max.-Head-Change    Column Row Layer    Max.-Flux-Residual            L2-New               L2-Old           Solver-Max-Delh
          0                 1           3           264   78     1       0.4810805154E+00     383  326    1       0.9372317748E+03      0.9116907427E+04      0.4686611446E+02      0.4810805154E+00
          0                 2           2           457  456     1       0.6502837399E-01     383  326    1      -0.9378108682E+02      0.9122535344E+03      0.9116907427E+04      0.6502837399E-01

    ------------------------------------------------
       NWT REQUIRED            2 OUTER ITERATIONS 
       AND A TOTAL OF          5 INNER ITERATIONS.
    ------------------------------------------------

 NO OUTPUT CONTROL FOR STRESS PERIOD   28   TIME STEP    9

 WELLS WITH REDUCED PUMPING FOR STRESS PERIOD    28 TIME STEP     9
   LAY   ROW   COL         APPL.Q          ACT.Q        GW-HEAD       CELL-BOT
     1    92    77  -0.620891E+03  -0.412163E+03  -0.782718E+02  -0.930000E+02


 SOLVING FOR HEAD 
                                                   Max.-Head-Change                        Max.-Flux-Residual
  Residual-Control   Outer-Iter.   Inner-Iter.     Column Row Layer    Max.-Head-Change    Column Row Layer    Max.-Flux-Residual            L2-New               L2-Old           Solver-Max-Delh
          0                 1           3           264   78     1       0.4014933536E+00     383  326    1       0.8669381487E+03      0.8892858095E+04      0.4561461130E+02      0.4014933536E+00
          0                 2           2           457  456     1       0.6495524422E-01     458  427    1       0.1520584314E+03      0.9049899660E+03      0.8892858095E+04      0.6495524422E-01

    ------------------------------------------------
       NWT REQUIRED            2 OUTER ITERATIONS 
       AND A TOTAL OF          5 INNER ITERATIONS.
    ------------------------------------------------

 OUTPUT CONTROL FOR STRESS PERIOD   28   TIME STEP   10
    SAVE HEAD FOR ALL LAYERS

 WELLS WITH REDUCED PUMPING FOR STRESS PERIOD    28 TIME STEP    10
   LAY   ROW   COL         APPL.Q          ACT.Q        GW-HEAD       CELL-BOT
     1    92    77  -0.620891E+03  -0.418378E+03  -0.781020E+02  -0.930000E+02


 HEAD WILL BE SAVED ON UNIT   51 AT END OF TIME STEP   10, STRESS PERIOD   28
1
  VOLUMETRIC BUDGET FOR ENTIRE MODEL AT END OF TIME STEP   10, STRESS PERIOD  28
  ------------------------------------------------------------------------------

     CUMULATIVE VOLUMES      L**3       RATES FOR THIS TIME STEP      L**3/T
     ------------------                 ------------------------

           IN:                                      IN:
           ---                                      ---
             STORAGE =   345826912.0000               STORAGE =      127646.0547
       CONSTANT HEAD =    42143636.0000         CONSTANT HEAD =       51467.8477
               WELLS =           0.0000                 WELLS =           0.0000
              DRAINS =           0.0000                DRAINS =           0.0000
                  ET =           0.0000                    ET =           0.0000
            RECHARGE =   150452976.0000              RECHARGE =      302744.3438

            TOTAL IN =   538423552.0000              TOTAL IN =      481858.2500

          OUT:                                     OUT:
          ----                                     ----
             STORAGE =   126879304.0000               STORAGE =      222647.4844
       CONSTANT HEAD =           0.0000         CONSTANT HEAD =           0.0000
               WELLS =   279402528.0000                 WELLS =       95296.4531
              DRAINS =    90531552.0000                DRAINS =      118520.5391
                  ET =    40962380.0000                    ET =       45867.0312
            RECHARGE =       81860.0000              RECHARGE =           0.0000

           TOTAL OUT =   537857600.0000             TOTAL OUT =      482331.5000

            IN - OUT =      565952.0000              IN - OUT =        -473.2500

 PERCENT DISCREPANCY =           0.11     PERCENT DISCREPANCY =          -0.10






         TIME SUMMARY AT END OF TIME STEP   10 IN STRESS PERIOD   28
                    SECONDS     MINUTES      HOURS       DAYS        YEARS
                    -----------------------------------------------------------
   TIME STEP LENGTH 2.62656E+05  4377.6      72.960      3.0400     8.32307E-03
 STRESS PERIOD TIME 2.62656E+06  43776.      729.60      30.400     8.32307E-02
         TOTAL TIME 7.35435E+07 1.22573E+06  20429.      851.20      2.3305    
1
1
                            STRESS PERIOD NO.   29, LENGTH =   30.40000    
                            -----------------------------------------------

                              NUMBER OF TIME STEPS =    10

                               MULTIPLIER FOR DELT =     1.000

                            INITIAL TIME STEP SIZE =   3.040000    

 WELL NO.  LAYER   ROW   COL   STRESS RATE         
 --------------------------------------------------
      1      1     69    225      -2419.    
      2      1     71    224       0.000    
      3      1     74    220       0.000    
      4      1     73    220       0.000    
      5      1     71    223       0.000    
      6      1     71    223       0.000    
      7      1     72    223       0.000    
      8      1     92    173       0.000    
      9      1     94    174       0.000    
     10      1     93    175       0.000    
     11      1    203    328       0.000    
     12      1    438    460      -550.5    
     13      1    436    461      -550.5    
     14      1    410    454      -550.5    
     15      1    433    460      -550.5    
     16      1    431    462      -550.5    
     17      1    417    459      -550.5    
     18      1    418    458      -550.5    
     19      1    414    455      -550.5    
     20      1    443    464      -550.5    
     21      1    379    425      -550.5    
     22      1    362    405      -550.5    
     23      1    361    405      -550.5    
     24      1    362    406      -550.5    
     25      1    363    408      -550.5    
     26      1    364    410      -550.5    
     27      1    369    418      -550.5    
     28      1    367    417      -550.5    
     29      1    365    415      -550.5    
     30      1    402    447      -550.5    
     31      1    400    446      -550.5    
     32      1    392    444      -550.5    
     33      1    391    441      -550.5    
     34      1    403    448      -550.5    
     35      1    405    447      -550.5    
     36      1    362    410      -550.5    
     37      1    362    411      -550.5    
     38      1    363    412      -550.5    
     39      1    375    421      -550.5    
     40      1    383    430      -550.5    
     41      1    397    445      -550.5    
     42      1    360    403      -550.5    
     43      1    350    401      -550.5    
     44      1    346    393      -581.6    
     45      1    333    387      -581.6    
     46      1    328    384      -581.6    
     47      1    326    383      -581.6    
     48      1    323    378      -581.6    
     49      1    321    378      -581.6    
     50      1    322    376      -581.6    
     51      1    316    374      -581.6    
     52      1    311    371      -581.6    
     53      1    307    369      -581.6    
     54      1    305    368      -581.6    
     55      1    303    368      -581.6    
     56      1    300    369      -581.6    
     57      1    293    364      -581.6    
     58      1    292    362      -581.6    
     59      1    278    350      -581.6    
     60      1    274    351      -581.6    
     61      1    273    350      -581.6    
     62      1    271    350      -581.6    
     63      1    267    348      -581.6    
     64      1    263    348      -581.6    
     65      1    263    348      -581.6    
     66      1    248    347      -581.6    
     67      1    243    342      -581.6    
     68      1    242    339      -581.6    
     69      1    238    341      -581.6    
     70      1    233    340      -581.6    
     71      1    232    340      -581.6    
     72      1    229    341      -581.6    
     73      1    227    341      -581.6    
     74      1    219    342      -581.6    
     75      1    219    336      -581.6    
     76      1    199    329      -581.6    
     77      1    191    332      -0.000    
     78      1    190    332      -0.000    
     79      1    130    310      -0.000    
     80      1    123    305      -0.000    
     81      1    104    289      -0.000    
     82      1     96    287      -1045.    
     83      1     95    284      -1045.    
     84      1     95    280      -1045.    
     85      1     93    276      -1045.    
     86      1     94    275      -1045.    
     87      1     90    277      -1045.    
     88      1     90    273      -1045.    
     89      1     86    271      -1045.    
     90      1     85    270      -1045.    
     91      1     84    265      -1045.    
     92      1     85    265      -1045.    
     93      1     84    264      -1045.    
     94      1     79    263      -1045.    
     95      1     79    263      -1045.    
     96      1     76    262      -1045.    
     97      1     73    257      -1045.    
     98      1     74    255      -1045.    
     99      1     71    255      -1045.    
    100      1     66    253      -1045.    
    101      1     68    252      -1045.    
    102      1     69    250      -1045.    
    103      1     65    248      -1045.    
    104      1     68    248      -1045.    
    105      1     69    247      -1045.    
    106      1     73    247      -1045.    
    107      1     64    246      -1045.    
    108      1     69    245      -1045.    
    109      1     72    245      -1045.    
    110      1     69    241      -1045.    
    111      1     73    238      -1045.    
    112      1     70    238      -1045.    
    113      1     76    263      -1045.    
    114      1     66    232      -728.1    
    115      1     69    229      -728.1    
    116      1     71    228      -728.1    
    117      1     69    227      -728.1    
    118      1     72    219      -728.1    
    119      1     72    218      -728.1    
    120      1     72    218      -728.1    
    121      1     73    217      -728.1    
    122      1     77    219      -728.1    
    123      1     78    219      -728.1    
    124      1     83    213      -728.1    
    125      1     77    213      -728.1    
    126      1     81    211      -728.1    
    127      1     81    210      -728.1    
    128      1     81    210      -728.1    
    129      1     82    208      -728.1    
    130      1     80    205      -728.1    
    131      1     86    202      -728.1    
    132      1     84    200      -728.1    
    133      1     89    200      -728.1    
    134      1     89    199      -728.1    
    135      1     88    199      -728.1    
    136      1     86    199      -728.1    
    137      1     85    199      -728.1    
    138      1     82    197      -728.1    
    139      1     86    197      -728.1    
    140      1     88    198      -728.1    
    141      1     90    192      -728.1    
    142      1     89    191      -728.1    
    143      1     84    192      -728.1    
    144      1     91    189      -728.1    
    145      1     92    185      -728.1    
    146      1     87    183      -728.1    
    147      1     92    182      -728.1    
    148      1     90    182      -728.1    
    149      1     88    179      -728.1    
    150      1     89    176      -728.1    
    151      1     92    172      -728.1    
    152      1     93    164      -728.1    
    153      1     94    162      -728.1    
    154      1    103    156      -728.1    
    155      1    103    156      -728.1    
    156      1     96    154      -728.1    
    157      1     97    153      -728.1    
    158      1    122    139      -728.1    
    159      1     92     77      -728.1    
    160      1     94     77      -728.1    
    161      1     94     73      -728.1    
    162      1     97    152      -728.1    
    163      1    118    337      -666.7    
    164      1    133    319      -2678.    
    165      1    131    320      -3951.    
    166      1    133    321      -2956.    
    167      1    161    329      -2141.    
    168      1    178    330      -551.0    
    169      1    163    330      -1122.    
    170      1    131    320      -2473.    
    171      1    129    315      -3937.    
    172      1    162    329      -1959.    
    173      1    131    311      -826.1    
    174      1    221    340      -1994.    
    175      1    220    340      -1034.    
    176      1    221    340      -667.7    
    177      1    137    322      -2082.    
    178      1    137    321      -1407.    
    179      1    185    329      -2012.    
    180      1    183    329      -1473.    
    181      1    175    329      -585.3    
    182      1     79    243      -1490.    
    183      1     77    245      -2414.    
    184      1    199    329      -1617.    
    185      1    198    330      -2514.    
    186      1    140    328      -972.1    
    187      1    143    327      -863.6    
    188      1    139    327      -1331.    

    188 WELLS

 REUSING NON-PARAMETER DRAINS FROM LAST STRESS PERIOD

   1061 DRAINS

 REUSING SURF FROM LAST STRESS PERIOD

 REUSING EVTR FROM LAST STRESS PERIOD

 REUSING EXDP FROM LAST STRESS PERIOD



                           RECHARGE
 READING ON UNIT   19 WITH FORMAT: (510E15.6)          

 SOLVING FOR HEAD 
                                                   Max.-Head-Change                        Max.-Flux-Residual
  Residual-Control   Outer-Iter.   Inner-Iter.     Column Row Layer    Max.-Head-Change    Column Row Layer    Max.-Flux-Residual            L2-New               L2-Old           Solver-Max-Delh
          0                 1           3           263   79     1      -0.2795536165E+01     263   79    1      -0.1040520826E+04      0.9912882000E+04      0.4520597840E+02     -0.2795536165E+01
          0                 2           2           263   79     1       0.2356807431E+00     263   79    1       0.1027226206E+03      0.9952680066E+03      0.9912882000E+04      0.2356807431E+00
          0                 3           2           457  456     1       0.6451540352E-01     263   79    1       0.5128265013E+01      0.4975336567E+02      0.9952680066E+03      0.6451540352E-01

    ------------------------------------------------
       NWT REQUIRED            3 OUTER ITERATIONS 
       AND A TOTAL OF          7 INNER ITERATIONS.
    ------------------------------------------------

 NO OUTPUT CONTROL FOR STRESS PERIOD   29   TIME STEP    1

 WELLS WITH REDUCED PUMPING FOR STRESS PERIOD    29 TIME STEP     1
   LAY   ROW   COL         APPL.Q          ACT.Q        GW-HEAD       CELL-BOT
     1    92    77  -0.728135E+03  -0.479005E+03  -0.783726E+02  -0.930000E+02


 SOLVING FOR HEAD 
                                                   Max.-Head-Change                        Max.-Flux-Residual
  Residual-Control   Outer-Iter.   Inner-Iter.     Column Row Layer    Max.-Head-Change    Column Row Layer    Max.-Flux-Residual            L2-New               L2-Old           Solver-Max-Delh
          0                 1           3           263   79     1      -0.1039615494E+01     461  449    1       0.7214995537E+03      0.8725392716E+04      0.4975336567E+02     -0.1039615494E+01
          0                 2           2           263   79     1       0.8937107403E-01     461  449    1      -0.7229321209E+02      0.8727270483E+03      0.8725392716E+04      0.8937107403E-01

    ------------------------------------------------
       NWT REQUIRED            2 OUTER ITERATIONS 
       AND A TOTAL OF          5 INNER ITERATIONS.
    ------------------------------------------------

 NO OUTPUT CONTROL FOR STRESS PERIOD   29   TIME STEP    2

 WELLS WITH REDUCED PUMPING FOR STRESS PERIOD    29 TIME STEP     2
   LAY   ROW   COL         APPL.Q          ACT.Q        GW-HEAD       CELL-BOT
     1    92    77  -0.728135E+03  -0.470176E+03  -0.785760E+02  -0.930000E+02


 SOLVING FOR HEAD 
                                                   Max.-Head-Change                        Max.-Flux-Residual
  Residual-Control   Outer-Iter.   Inner-Iter.     Column Row Layer    Max.-Head-Change    Column Row Layer    Max.-Flux-Residual            L2-New               L2-Old           Solver-Max-Delh
          0                 1           3           263   79     1      -0.3934475591E+00     461  449    1       0.6778306706E+03      0.8494271645E+04      0.4363824945E+02     -0.3934475591E+00
          0                 2           2           457  456     1       0.6430889845E-01     457  425    1       0.1106978319E+03      0.8569691650E+03      0.8494271645E+04      0.6430889845E-01

    ------------------------------------------------
       NWT REQUIRED            2 OUTER ITERATIONS 
       AND A TOTAL OF          5 INNER ITERATIONS.
    ------------------------------------------------

 NO OUTPUT CONTROL FOR STRESS PERIOD   29   TIME STEP    3

 WELLS WITH REDUCED PUMPING FOR STRESS PERIOD    29 TIME STEP     3
   LAY   ROW   COL         APPL.Q          ACT.Q        GW-HEAD       CELL-BOT
     1    92    77  -0.728135E+03  -0.463529E+03  -0.787282E+02  -0.930000E+02


 SOLVING FOR HEAD 
                                                   Max.-Head-Change                        Max.-Flux-Residual
  Residual-Control   Outer-Iter.   Inner-Iter.     Column Row Layer    Max.-Head-Change    Column Row Layer    Max.-Flux-Residual            L2-New               L2-Old           Solver-Max-Delh
          0                 1           3           462  453     1       0.2601625920E+00     462  451    1       0.6464301511E+03      0.8324203641E+04      0.4285036669E+02      0.2601625920E+00
          0                 2           2           457  456     1       0.6418988034E-01     462  451    1      -0.6469790878E+02      0.8340974712E+03      0.8324203641E+04      0.6418988034E-01

    ------------------------------------------------
       NWT REQUIRED            2 OUTER ITERATIONS 
       AND A TOTAL OF          5 INNER ITERATIONS.
    ------------------------------------------------

 NO OUTPUT CONTROL FOR STRESS PERIOD   29   TIME STEP    4

 WELLS WITH REDUCED PUMPING FOR STRESS PERIOD    29 TIME STEP     4
   LAY   ROW   COL         APPL.Q          ACT.Q        GW-HEAD       CELL-BOT
     1    92    77  -0.728135E+03  -0.458520E+03  -0.788424E+02  -0.930000E+02


 SOLVING FOR HEAD 
                                                   Max.-Head-Change                        Max.-Flux-Residual
  Residual-Control   Outer-Iter.   Inner-Iter.     Column Row Layer    Max.-Head-Change    Column Row Layer    Max.-Flux-Residual            L2-New               L2-Old           Solver-Max-Delh
          0                 1           3           464  454     1       0.2532700535E+00     464  454    1       0.6250662678E+03      0.8172597615E+04      0.4170649307E+02      0.2532700535E+00
          0                 2           2           457  456     1       0.6405956789E-01     457  432    1      -0.1030357392E+03      0.8236048077E+03      0.8172597615E+04      0.6405956789E-01

    ------------------------------------------------
       NWT REQUIRED            2 OUTER ITERATIONS 
       AND A TOTAL OF          5 INNER ITERATIONS.
    ------------------------------------------------

 NO OUTPUT CONTROL FOR STRESS PERIOD   29   TIME STEP    5

 WELLS WITH REDUCED PUMPING FOR STRESS PERIOD    29 TIME STEP     5
   LAY   ROW   COL         APPL.Q          ACT.Q        GW-HEAD       CELL-BOT
     1    92    77  -0.728135E+03  -0.454733E+03  -0.789285E+02  -0.930000E+02


 SOLVING FOR HEAD 
                                                   Max.-Head-Change                        Max.-Flux-Residual
  Residual-Control   Outer-Iter.   Inner-Iter.     Column Row Layer    Max.-Head-Change    Column Row Layer    Max.-Flux-Residual            L2-New               L2-Old           Solver-Max-Delh
          0                 1           3           465  455     1       0.2474090340E+00     465  455    1       0.6101056665E+03      0.8027144325E+04      0.4118208176E+02      0.2474090340E+00
          0                 2           2           457  456     1       0.6391811067E-01     458  433    1       0.2165085467E+03      0.8513525699E+03      0.8027144325E+04      0.6391811067E-01

    ------------------------------------------------
       NWT REQUIRED            2 OUTER ITERATIONS 
       AND A TOTAL OF          5 INNER ITERATIONS.
    ------------------------------------------------

 NO OUTPUT CONTROL FOR STRESS PERIOD   29   TIME STEP    6

 WELLS WITH REDUCED PUMPING FOR STRESS PERIOD    29 TIME STEP     6
   LAY   ROW   COL         APPL.Q          ACT.Q        GW-HEAD       CELL-BOT
     1    92    77  -0.728135E+03  -0.451855E+03  -0.789938E+02  -0.930000E+02


 SOLVING FOR HEAD 
                                                   Max.-Head-Change                        Max.-Flux-Residual
  Residual-Control   Outer-Iter.   Inner-Iter.     Column Row Layer    Max.-Head-Change    Column Row Layer    Max.-Flux-Residual            L2-New               L2-Old           Solver-Max-Delh
          0                 1           3           465  455     1       0.2422047457E+00     467  454    1       0.5972538082E+03      0.7890271917E+04      0.4204995684E+02      0.2422047457E+00
          0                 2           2           457  456     1       0.6376565490E-01     457  434    1      -0.1436554444E+03      0.8027712272E+03      0.7890271917E+04      0.6376565490E-01

    ------------------------------------------------
       NWT REQUIRED            2 OUTER ITERATIONS 
       AND A TOTAL OF          5 INNER ITERATIONS.
    ------------------------------------------------

 NO OUTPUT CONTROL FOR STRESS PERIOD   29   TIME STEP    7

 WELLS WITH REDUCED PUMPING FOR STRESS PERIOD    29 TIME STEP     7
   LAY   ROW   COL         APPL.Q          ACT.Q        GW-HEAD       CELL-BOT
     1    92    77  -0.728135E+03  -0.449650E+03  -0.790438E+02  -0.930000E+02


 SOLVING FOR HEAD 
                                                   Max.-Head-Change                        Max.-Flux-Residual
  Residual-Control   Outer-Iter.   Inner-Iter.     Column Row Layer    Max.-Head-Change    Column Row Layer    Max.-Flux-Residual            L2-New               L2-Old           Solver-Max-Delh
          0                 1           3           466  456     1       0.2372333713E+00     467  454    1       0.5852001332E+03      0.7759629981E+04      0.4027965567E+02      0.2372333713E+00
          0                 2           2           457  456     1       0.6360235174E-01     454  417    1       0.1091883521E+03      0.7839083251E+03      0.7759629981E+04      0.6360235174E-01

    ------------------------------------------------
       NWT REQUIRED            2 OUTER ITERATIONS 
       AND A TOTAL OF          5 INNER ITERATIONS.
    ------------------------------------------------

 NO OUTPUT CONTROL FOR STRESS PERIOD   29   TIME STEP    8

 WELLS WITH REDUCED PUMPING FOR STRESS PERIOD    29 TIME STEP     8
   LAY   ROW   COL         APPL.Q          ACT.Q        GW-HEAD       CELL-BOT
     1    92    77  -0.728135E+03  -0.447944E+03  -0.790824E+02  -0.930000E+02


 SOLVING FOR HEAD 
                                                   Max.-Head-Change                        Max.-Flux-Residual
  Residual-Control   Outer-Iter.   Inner-Iter.     Column Row Layer    Max.-Head-Change    Column Row Layer    Max.-Flux-Residual            L2-New               L2-Old           Solver-Max-Delh
          0                 1           3           466  456     1       0.2325547993E+00     467  454    1       0.5734238756E+03      0.7624518310E+04      0.3919678080E+02      0.2325547993E+00
          0                 2           2           457  456     1       0.6342835290E-01     456  424    1       0.1333338162E+03      0.7743291089E+03      0.7624518310E+04      0.6342835290E-01

    ------------------------------------------------
       NWT REQUIRED            2 OUTER ITERATIONS 
       AND A TOTAL OF          5 INNER ITERATIONS.
    ------------------------------------------------

 NO OUTPUT CONTROL FOR STRESS PERIOD   29   TIME STEP    9

 WELLS WITH REDUCED PUMPING FOR STRESS PERIOD    29 TIME STEP     9
   LAY   ROW   COL         APPL.Q          ACT.Q        GW-HEAD       CELL-BOT
     1    92    77  -0.728135E+03  -0.446607E+03  -0.791126E+02  -0.930000E+02


 SOLVING FOR HEAD 
                                                   Max.-Head-Change                        Max.-Flux-Residual
  Residual-Control   Outer-Iter.   Inner-Iter.     Column Row Layer    Max.-Head-Change    Column Row Layer    Max.-Flux-Residual            L2-New               L2-Old           Solver-Max-Delh
          0                 1           3           471  451     1       0.2279898136E+00     467  454    1       0.5619687060E+03      0.7494273555E+04      0.3871804809E+02      0.2279898136E+00
          0                 2           2           457  456     1       0.6324381350E-01     467  454    1      -0.5621391702E+02      0.7496114731E+03      0.7494273555E+04      0.6324381350E-01

    ------------------------------------------------
       NWT REQUIRED            2 OUTER ITERATIONS 
       AND A TOTAL OF          5 INNER ITERATIONS.
    ------------------------------------------------

 OUTPUT CONTROL FOR STRESS PERIOD   29   TIME STEP   10
    SAVE HEAD FOR ALL LAYERS

 WELLS WITH REDUCED PUMPING FOR STRESS PERIOD    29 TIME STEP    10
   LAY   ROW   COL         APPL.Q          ACT.Q        GW-HEAD       CELL-BOT
     1    92    77  -0.728135E+03  -0.445544E+03  -0.791366E+02  -0.930000E+02


 HEAD WILL BE SAVED ON UNIT   51 AT END OF TIME STEP   10, STRESS PERIOD   29
1
  VOLUMETRIC BUDGET FOR ENTIRE MODEL AT END OF TIME STEP   10, STRESS PERIOD  29
  ------------------------------------------------------------------------------

     CUMULATIVE VOLUMES      L**3       RATES FOR THIS TIME STEP      L**3/T
     ------------------                 ------------------------

           IN:                                      IN:
           ---                                      ---
             STORAGE =   349807200.0000               STORAGE =      124965.9062
       CONSTANT HEAD =    43709088.0000         CONSTANT HEAD =       51517.1055
               WELLS =           0.0000                 WELLS =           0.0000
              DRAINS =           0.0000                DRAINS =           0.0000
                  ET =           0.0000                    ET =           0.0000
            RECHARGE =   159619376.0000              RECHARGE =      301526.0312

            TOTAL IN =   553135680.0000              TOTAL IN =      478009.0625

          OUT:                                     OUT:
          ----                                     ----
             STORAGE =   132092152.0000               STORAGE =      159447.5781
       CONSTANT HEAD =           0.0000         CONSTANT HEAD =           0.0000
               WELLS =   283702880.0000                 WELLS =      141446.3594
              DRAINS =    94294640.0000                DRAINS =      128378.4609
                  ET =    42403784.0000                    ET =       48915.0312
            RECHARGE =       81860.0000              RECHARGE =           0.0000

           TOTAL OUT =   552575296.0000             TOTAL OUT =      478187.4375

            IN - OUT =      560384.0000              IN - OUT =        -178.3750

 PERCENT DISCREPANCY =           0.10     PERCENT DISCREPANCY =          -0.04






         TIME SUMMARY AT END OF TIME STEP   10 IN STRESS PERIOD   29
                    SECONDS     MINUTES      HOURS       DAYS        YEARS
                    -----------------------------------------------------------
   TIME STEP LENGTH 2.62656E+05  4377.6      72.960      3.0400     8.32307E-03
 STRESS PERIOD TIME 2.62656E+06  43776.      729.60      30.400     8.32307E-02
         TOTAL TIME 7.61700E+07 1.26950E+06  21158.      881.60      2.4137    
1
1
                            STRESS PERIOD NO.   30, LENGTH =   30.40000    
                            -----------------------------------------------

                              NUMBER OF TIME STEPS =    10

                               MULTIPLIER FOR DELT =     1.000

                            INITIAL TIME STEP SIZE =   3.040000    

 WELL NO.  LAYER   ROW   COL   STRESS RATE         
 --------------------------------------------------
      1      1     69    225      -2506.    
      2      1     71    224       0.000    
      3      1     74    220       0.000    
      4      1     73    220       0.000    
      5      1     71    223       0.000    
      6      1     71    223       0.000    
      7      1     72    223       0.000    
      8      1     92    173       0.000    
      9      1     94    174       0.000    
     10      1     93    175       0.000    
     11      1    203    328       0.000    
     12      1    438    460      -2394.    
     13      1    436    461      -2394.    
     14      1    410    454      -2394.    
     15      1    433    460      -2394.    
     16      1    431    462      -2394.    
     17      1    417    459      -2394.    
     18      1    418    458      -2394.    
     19      1    414    455      -2394.    
     20      1    443    464      -2394.    
     21      1    379    425      -2394.    
     22      1    362    405      -2394.    
     23      1    361    405      -2394.    
     24      1    362    406      -2394.    
     25      1    363    408      -2394.    
     26      1    364    410      -2394.    
     27      1    369    418      -2394.    
     28      1    367    417      -2394.    
     29      1    365    415      -2394.    
     30      1    402    447      -2394.    
     31      1    400    446      -2394.    
     32      1    392    444      -2394.    
     33      1    391    441      -2394.    
     34      1    403    448      -2394.    
     35      1    405    447      -2394.    
     36      1    362    410      -2394.    
     37      1    362    411      -2394.    
     38      1    363    412      -2394.    
     39      1    375    421      -2394.    
     40      1    383    430      -2394.    
     41      1    397    445      -2394.    
     42      1    360    403      -2394.    
     43      1    350    401      -2394.    
     44      1    346    393      -2778.    
     45      1    333    387      -2778.    
     46      1    328    384      -2778.    
     47      1    326    383      -2778.    
     48      1    323    378      -2778.    
     49      1    321    378      -2778.    
     50      1    322    376      -2778.    
     51      1    316    374      -2778.    
     52      1    311    371      -2778.    
     53      1    307    369      -2778.    
     54      1    305    368      -2778.    
     55      1    303    368      -2778.    
     56      1    300    369      -2778.    
     57      1    293    364      -2778.    
     58      1    292    362      -2778.    
     59      1    278    350      -2778.    
     60      1    274    351      -2778.    
     61      1    273    350      -2778.    
     62      1    271    350      -2778.    
     63      1    267    348      -2778.    
     64      1    263    348      -2778.    
     65      1    263    348      -2778.    
     66      1    248    347      -2778.    
     67      1    243    342      -2778.    
     68      1    242    339      -2778.    
     69      1    238    341      -2778.    
     70      1    233    340      -2778.    
     71      1    232    340      -2778.    
     72      1    229    341      -2778.    
     73      1    227    341      -2778.    
     74      1    219    342      -2778.    
     75      1    219    336      -2778.    
     76      1    199    329      -2778.    
     77      1    191    332      -3666.    
     78      1    190    332      -3666.    
     79      1    130    310      -3666.    
     80      1    123    305      -3666.    
     81      1    104    289      -3666.    
     82      1     96    287      -4290.    
     83      1     95    284      -4290.    
     84      1     95    280      -4290.    
     85      1     93    276      -4290.    
     86      1     94    275      -4290.    
     87      1     90    277      -4290.    
     88      1     90    273      -4290.    
     89      1     86    271      -4290.    
     90      1     85    270      -4290.    
     91      1     84    265      -4290.    
     92      1     85    265      -4290.    
     93      1     84    264      -4290.    
     94      1     79    263      -4290.    
     95      1     79    263      -4290.    
     96      1     76    262      -4290.    
     97      1     73    257      -4290.    
     98      1     74    255      -4290.    
     99      1     71    255      -4290.    
    100      1     66    253      -4290.    
    101      1     68    252      -4290.    
    102      1     69    250      -4290.    
    103      1     65    248      -4290.    
    104      1     68    248      -4290.    
    105      1     69    247      -4290.    
    106      1     73    247      -4290.    
    107      1     64    246      -4290.    
    108      1     69    245      -4290.    
    109      1     72    245      -4290.    
    110      1     69    241      -4290.    
    111      1     73    238      -4290.    
    112      1     70    238      -4290.    
    113      1     76    263      -4290.    
    114      1     66    232      -2310.    
    115      1     69    229      -2310.    
    116      1     71    228      -2310.    
    117      1     69    227      -2310.    
    118      1     72    219      -2310.    
    119      1     72    218      -2310.    
    120      1     72    218      -2310.    
    121      1     73    217      -2310.    
    122      1     77    219      -2310.    
    123      1     78    219      -2310.    
    124      1     83    213      -2310.    
    125      1     77    213      -2310.    
    126      1     81    211      -2310.    
    127      1     81    210      -2310.    
    128      1     81    210      -2310.    
    129      1     82    208      -2310.    
    130      1     80    205      -2310.    
    131      1     86    202      -2310.    
    132      1     84    200      -2310.    
    133      1     89    200      -2310.    
    134      1     89    199      -2310.    
    135      1     88    199      -2310.    
    136      1     86    199      -2310.    
    137      1     85    199      -2310.    
    138      1     82    197      -2310.    
    139      1     86    197      -2310.    
    140      1     88    198      -2310.    
    141      1     90    192      -2310.    
    142      1     89    191      -2310.    
    143      1     84    192      -2310.    
    144      1     91    189      -2310.    
    145      1     92    185      -2310.    
    146      1     87    183      -2310.    
    147      1     92    182      -2310.    
    148      1     90    182      -2310.    
    149      1     88    179      -2310.    
    150      1     89    176      -2310.    
    151      1     92    172      -2310.    
    152      1     93    164      -2310.    
    153      1     94    162      -2310.    
    154      1    103    156      -2310.    
    155      1    103    156      -2310.    
    156      1     96    154      -2310.    
    157      1     97    153      -2310.    
    158      1    122    139      -2310.    
    159      1     92     77      -2310.    
    160      1     94     77      -2310.    
    161      1     94     73      -2310.    
    162      1     97    152      -2310.    
    163      1    118    337      -666.7    
    164      1    133    319      -2678.    
    165      1    131    320      -3951.    
    166      1    133    321      -2956.    
    167      1    161    329      -2141.    
    168      1    178    330      -551.0    
    169      1    163    330      -1122.    
    170      1    131    320      -2473.    
    171      1    129    315      -3937.    
    172      1    162    329      -1959.    
    173      1    131    311      -826.1    
    174      1    221    340      -1994.    
    175      1    220    340      -1034.    
    176      1    221    340      -667.7    
    177      1    137    322      -2082.    
    178      1    137    321      -1407.    
    179      1    185    329      -2012.    
    180      1    183    329      -1473.    
    181      1    175    329      -585.3    
    182      1     79    243      -1490.    
    183      1     77    245      -2414.    
    184      1    199    329      -1617.    
    185      1    198    330      -2514.    
    186      1    140    328      -972.1    
    187      1    143    327      -863.6    
    188      1    139    327      -1331.    

    188 WELLS

 REUSING NON-PARAMETER DRAINS FROM LAST STRESS PERIOD

   1061 DRAINS

 REUSING SURF FROM LAST STRESS PERIOD

 REUSING EVTR FROM LAST STRESS PERIOD

 REUSING EXDP FROM LAST STRESS PERIOD



                           RECHARGE
 READING ON UNIT   19 WITH FORMAT: (510E15.6)          

 SOLVING FOR HEAD 
                                                   Max.-Head-Change                        Max.-Flux-Residual
  Residual-Control   Outer-Iter.   Inner-Iter.     Column Row Layer    Max.-Head-Change    Column Row Layer    Max.-Flux-Residual            L2-New               L2-Old           Solver-Max-Delh
          0                 1           3           263   79     1      -0.1802645189E+02     263   79    1      -0.6466632665E+04      0.2922013853E+05      0.3748200923E+02     -0.1802645189E+02
          0                 2           2           263   79     1       0.1385339605E+01     263   79    1       0.5543035489E+03      0.2949002529E+04      0.2922013853E+05      0.1385339605E+01
          0                 3           2           263   79     1       0.6779876949E-01     255   71    1       0.3356736981E+02      0.1516966912E+03      0.2949002529E+04      0.6779876949E-01

    ------------------------------------------------
       NWT REQUIRED            3 OUTER ITERATIONS 
       AND A TOTAL OF          7 INNER ITERATIONS.
    ------------------------------------------------

 NO OUTPUT CONTROL FOR STRESS PERIOD   30   TIME STEP    1

 WELLS WITH REDUCED PUMPING FOR STRESS PERIOD    30 TIME STEP     1
   LAY   ROW   COL         APPL.Q          ACT.Q        GW-HEAD       CELL-BOT
     1    92    77  -0.230952E+04  -0.927162E+03  -0.825411E+02  -0.930000E+02


 SOLVING FOR HEAD 
                                                   Max.-Head-Change                        Max.-Flux-Residual
  Residual-Control   Outer-Iter.   Inner-Iter.     Column Row Layer    Max.-Head-Change    Column Row Layer    Max.-Flux-Residual            L2-New               L2-Old           Solver-Max-Delh
          0                 1           3           263   79     1      -0.7328832887E+01     273   90    1      -0.2454228780E+04      0.1427935232E+05      0.1516966912E+03     -0.7328832887E+01
          0                 2           3           263   79     1       0.5912050590E+00     273   90    1       0.2442686677E+03      0.1426143907E+04      0.1427935232E+05      0.5912050590E+00
          0                 3           2           457  456     1       0.6210225097E-01     273   90    1       0.1220483246E+02      0.7125916473E+02      0.1426143907E+04      0.6210225097E-01

    ------------------------------------------------
       NWT REQUIRED            3 OUTER ITERATIONS 
       AND A TOTAL OF          8 INNER ITERATIONS.
    ------------------------------------------------

 NO OUTPUT CONTROL FOR STRESS PERIOD   30   TIME STEP    2

 WELLS WITH REDUCED PUMPING FOR STRESS PERIOD    30 TIME STEP     2
   LAY   ROW   COL         APPL.Q          ACT.Q        GW-HEAD       CELL-BOT
     1    92    77  -0.230952E+04  -0.699356E+03  -0.841955E+02  -0.930000E+02


 SOLVING FOR HEAD 
                                                   Max.-Head-Change                        Max.-Flux-Residual
  Residual-Control   Outer-Iter.   Inner-Iter.     Column Row Layer    Max.-Head-Change    Column Row Layer    Max.-Flux-Residual            L2-New               L2-Old           Solver-Max-Delh
          0                 1           3           263   79     1      -0.3333930100E+01     156  103    1      -0.1992191866E+04      0.1124287037E+05      0.7125916473E+02     -0.3333930100E+01
          0                 2           2           263   79     1       0.2771128720E+00     156  103    1       0.1990636145E+03      0.1125821075E+04      0.1124287037E+05      0.2771128720E+00
          0                 3           2           457  456     1       0.6152431202E-01     156  103    1       0.9952016141E+01      0.5630459840E+02      0.1125821075E+04      0.6152431202E-01

    ------------------------------------------------
       NWT REQUIRED            3 OUTER ITERATIONS 
       AND A TOTAL OF          7 INNER ITERATIONS.
    ------------------------------------------------

 NO OUTPUT CONTROL FOR STRESS PERIOD   30   TIME STEP    3

 WELLS WITH REDUCED PUMPING FOR STRESS PERIOD    30 TIME STEP     3
   LAY   ROW   COL         APPL.Q          ACT.Q        GW-HEAD       CELL-BOT
     1    92    77  -0.230952E+04  -0.591759E+03  -0.850205E+02  -0.930000E+02


 SOLVING FOR HEAD 
                                                   Max.-Head-Change                        Max.-Flux-Residual
  Residual-Control   Outer-Iter.   Inner-Iter.     Column Row Layer    Max.-Head-Change    Column Row Layer    Max.-Flux-Residual            L2-New               L2-Old           Solver-Max-Delh
          0                 1           3           263   79     1      -0.1744665148E+01      77   94    1      -0.1986476653E+04      0.9806982215E+04      0.5630459840E+02     -0.1744665148E+01
          0                 2           2           263   79     1       0.1474474085E+00      77   94    1       0.1985573204E+03      0.9817448552E+03      0.9806982215E+04      0.1474474085E+00
          0                 3           2           457  456     1       0.6094271817E-01      77   94    1       0.9927186228E+01      0.4907968784E+02      0.9817448552E+03      0.6094271817E-01

    ------------------------------------------------
       NWT REQUIRED            3 OUTER ITERATIONS 
       AND A TOTAL OF          7 INNER ITERATIONS.
    ------------------------------------------------

 NO OUTPUT CONTROL FOR STRESS PERIOD   30   TIME STEP    4

 WELLS WITH REDUCED PUMPING FOR STRESS PERIOD    30 TIME STEP     4
   LAY   ROW   COL         APPL.Q          ACT.Q        GW-HEAD       CELL-BOT
     1    92    77  -0.230952E+04  -0.539155E+03  -0.854394E+02  -0.930000E+02


 SOLVING FOR HEAD 
                                                   Max.-Head-Change                        Max.-Flux-Residual
  Residual-Control   Outer-Iter.   Inner-Iter.     Column Row Layer    Max.-Head-Change    Column Row Layer    Max.-Flux-Residual            L2-New               L2-Old           Solver-Max-Delh
          0                 1           3           263   78     1      -0.1087492484E+01      77   94    1      -0.1985002768E+04      0.8964845549E+04      0.4907968784E+02     -0.1087492484E+01
          0                 2           2           263   78     1       0.9280427531E-01      77   94    1       0.1984100574E+03      0.8958030754E+03      0.8964845549E+04      0.9280427531E-01

    ------------------------------------------------
       NWT REQUIRED            2 OUTER ITERATIONS 
       AND A TOTAL OF          5 INNER ITERATIONS.
    ------------------------------------------------

 NO OUTPUT CONTROL FOR STRESS PERIOD   30   TIME STEP    5

 WELLS WITH REDUCED PUMPING FOR STRESS PERIOD    30 TIME STEP     5
   LAY   ROW   COL         APPL.Q          ACT.Q        GW-HEAD       CELL-BOT
     1    92    77  -0.230952E+04  -0.512632E+03  -0.856554E+02  -0.930000E+02


 SOLVING FOR HEAD 
                                                   Max.-Head-Change                        Max.-Flux-Residual
  Residual-Control   Outer-Iter.   Inner-Iter.     Column Row Layer    Max.-Head-Change    Column Row Layer    Max.-Flux-Residual            L2-New               L2-Old           Solver-Max-Delh
          0                 1           3           264   78     1      -0.9091780222E+00      77   94    1      -0.1983523918E+04      0.8411446460E+04      0.4478955701E+02     -0.9091780222E+00
          0                 2           2           264   78     1       0.7736807617E-01      77   94    1       0.1982622982E+03      0.8427999404E+03      0.8411446460E+04      0.7736807617E-01

    ------------------------------------------------
       NWT REQUIRED            2 OUTER ITERATIONS 
       AND A TOTAL OF          5 INNER ITERATIONS.
    ------------------------------------------------

 NO OUTPUT CONTROL FOR STRESS PERIOD   30   TIME STEP    6

 WELLS WITH REDUCED PUMPING FOR STRESS PERIOD    30 TIME STEP     6
   LAY   ROW   COL         APPL.Q          ACT.Q        GW-HEAD       CELL-BOT
     1    92    77  -0.230952E+04  -0.499152E+03  -0.857665E+02  -0.930000E+02


 SOLVING FOR HEAD 
                                                   Max.-Head-Change                        Max.-Flux-Residual
  Residual-Control   Outer-Iter.   Inner-Iter.     Column Row Layer    Max.-Head-Change    Column Row Layer    Max.-Flux-Residual            L2-New               L2-Old           Solver-Max-Delh
          0                 1           3            77   94     1      -0.8256813668E+00      77   94    1      -0.1982047064E+04      0.8023972860E+04      0.4213808573E+02     -0.8256813668E+00
          0                 2           2            77   94     1       0.7128236378E-01      77   94    1       0.1981147384E+03      0.8021253328E+03      0.8023972860E+04      0.7128236378E-01

    ------------------------------------------------
       NWT REQUIRED            2 OUTER ITERATIONS 
       AND A TOTAL OF          5 INNER ITERATIONS.
    ------------------------------------------------

 NO OUTPUT CONTROL FOR STRESS PERIOD   30   TIME STEP    7

 WELLS WITH REDUCED PUMPING FOR STRESS PERIOD    30 TIME STEP     7
   LAY   ROW   COL         APPL.Q          ACT.Q        GW-HEAD       CELL-BOT
     1    92    77  -0.230952E+04  -0.492228E+03  -0.858240E+02  -0.930000E+02


 SOLVING FOR HEAD 
                                                   Max.-Head-Change                        Max.-Flux-Residual
  Residual-Control   Outer-Iter.   Inner-Iter.     Column Row Layer    Max.-Head-Change    Column Row Layer    Max.-Flux-Residual            L2-New               L2-Old           Solver-Max-Delh
          0                 1           3            77   94     1      -0.8250983609E+00      77   94    1      -0.1980572182E+04      0.7739092336E+04      0.4010420708E+02     -0.8250983609E+00
          0                 2           2            77   94     1       0.7123204931E-01      77   94    1       0.1979673758E+03      0.7736903631E+03      0.7739092336E+04      0.7123204931E-01

    ------------------------------------------------
       NWT REQUIRED            2 OUTER ITERATIONS 
       AND A TOTAL OF          5 INNER ITERATIONS.
    ------------------------------------------------

 NO OUTPUT CONTROL FOR STRESS PERIOD   30   TIME STEP    8

 WELLS WITH REDUCED PUMPING FOR STRESS PERIOD    30 TIME STEP     8
   LAY   ROW   COL         APPL.Q          ACT.Q        GW-HEAD       CELL-BOT
     1    92    77  -0.230952E+04  -0.488642E+03  -0.858539E+02  -0.930000E+02


 SOLVING FOR HEAD 
                                                   Max.-Head-Change                        Max.-Flux-Residual
  Residual-Control   Outer-Iter.   Inner-Iter.     Column Row Layer    Max.-Head-Change    Column Row Layer    Max.-Flux-Residual            L2-New               L2-Old           Solver-Max-Delh
          0                 1           3            77   94     1      -0.8245161142E+00      77   94    1      -0.1979099284E+04      0.7521170343E+04      0.3868305223E+02     -0.8245161142E+00
          0                 2           2            77   94     1       0.7118180034E-01      77   94    1       0.1978202113E+03      0.7519245556E+03      0.7521170343E+04      0.7118180034E-01

    ------------------------------------------------
       NWT REQUIRED            2 OUTER ITERATIONS 
       AND A TOTAL OF          5 INNER ITERATIONS.
    ------------------------------------------------

 NO OUTPUT CONTROL FOR STRESS PERIOD   30   TIME STEP    9

 WELLS WITH REDUCED PUMPING FOR STRESS PERIOD    30 TIME STEP     9
   LAY   ROW   COL         APPL.Q          ACT.Q        GW-HEAD       CELL-BOT
     1    92    77  -0.230952E+04  -0.486767E+03  -0.858695E+02  -0.930000E+02


 SOLVING FOR HEAD 
                                                   Max.-Head-Change                        Max.-Flux-Residual
  Residual-Control   Outer-Iter.   Inner-Iter.     Column Row Layer    Max.-Head-Change    Column Row Layer    Max.-Flux-Residual            L2-New               L2-Old           Solver-Max-Delh
          0                 1           3            77   94     1      -0.8239346129E+00      77   94    1      -0.1977628334E+04      0.7349660329E+04      0.3759488156E+02     -0.8239346129E+00
          0                 2           2            77   94     1       0.7113161569E-01      77   94    1       0.1976732415E+03      0.7348161694E+03      0.7349660329E+04      0.7113161569E-01

    ------------------------------------------------
       NWT REQUIRED            2 OUTER ITERATIONS 
       AND A TOTAL OF          5 INNER ITERATIONS.
    ------------------------------------------------

 OUTPUT CONTROL FOR STRESS PERIOD   30   TIME STEP   10
    SAVE HEAD FOR ALL LAYERS

 WELLS WITH REDUCED PUMPING FOR STRESS PERIOD    30 TIME STEP    10
   LAY   ROW   COL         APPL.Q          ACT.Q        GW-HEAD       CELL-BOT
     1    92    77  -0.230952E+04  -0.485771E+03  -0.858778E+02  -0.930000E+02


 HEAD WILL BE SAVED ON UNIT   51 AT END OF TIME STEP   10, STRESS PERIOD   30
1
  VOLUMETRIC BUDGET FOR ENTIRE MODEL AT END OF TIME STEP   10, STRESS PERIOD  30
  ------------------------------------------------------------------------------

     CUMULATIVE VOLUMES      L**3       RATES FOR THIS TIME STEP      L**3/T
     ------------------                 ------------------------

           IN:                                      IN:
           ---                                      ---
             STORAGE =   360250272.0000               STORAGE =      324457.5625
       CONSTANT HEAD =    45275984.0000         CONSTANT HEAD =       51562.6953
               WELLS =           0.0000                 WELLS =           0.0000
              DRAINS =           0.0000                DRAINS =           0.0000
                  ET =           0.0000                    ET =           0.0000
            RECHARGE =   167541296.0000              RECHARGE =      260589.7656

            TOTAL IN =   573067584.0000              TOTAL IN =      636610.0000

          OUT:                                     OUT:
          ----                                     ----
             STORAGE =   133672632.0000               STORAGE =       34245.2773
       CONSTANT HEAD =           0.0000         CONSTANT HEAD =           0.0000
               WELLS =   296711840.0000                 WELLS =      427838.8125
              DRAINS =    98151256.0000                DRAINS =      125699.0547
                  ET =    43862300.0000                    ET =       47381.3555
            RECHARGE =       81860.0000              RECHARGE =           0.0000

           TOTAL OUT =   572479872.0000             TOTAL OUT =      635164.5000

            IN - OUT =      587712.0000              IN - OUT =        1445.5000

 PERCENT DISCREPANCY =           0.10     PERCENT DISCREPANCY =           0.23






         TIME SUMMARY AT END OF TIME STEP   10 IN STRESS PERIOD   30
                    SECONDS     MINUTES      HOURS       DAYS        YEARS
                    -----------------------------------------------------------
   TIME STEP LENGTH 2.62656E+05  4377.6      72.960      3.0400     8.32307E-03
 STRESS PERIOD TIME 2.62656E+06  43776.      729.60      30.400     8.32307E-02
         TOTAL TIME 7.87966E+07 1.31328E+06  21888.      912.00      2.4969    
1
1
                            STRESS PERIOD NO.   31, LENGTH =   30.40000    
                            -----------------------------------------------

                              NUMBER OF TIME STEPS =    10

                               MULTIPLIER FOR DELT =     1.000

                            INITIAL TIME STEP SIZE =   3.040000    

 WELL NO.  LAYER   ROW   COL   STRESS RATE         
 --------------------------------------------------
      1      1     69    225      -2592.    
      2      1     71    224       0.000    
      3      1     74    220       0.000    
      4      1     73    220       0.000    
      5      1     71    223       0.000    
      6      1     71    223       0.000    
      7      1     72    223       0.000    
      8      1     92    173       0.000    
      9      1     94    174       0.000    
     10      1     93    175       0.000    
     11      1    203    328       0.000    
     12      1    438    460      -2090.    
     13      1    436    461      -2090.    
     14      1    410    454      -2090.    
     15      1    433    460      -2090.    
     16      1    431    462      -2090.    
     17      1    417    459      -2090.    
     18      1    418    458      -2090.    
     19      1    414    455      -2090.    
     20      1    443    464      -2090.    
     21      1    379    425      -2090.    
     22      1    362    405      -2090.    
     23      1    361    405      -2090.    
     24      1    362    406      -2090.    
     25      1    363    408      -2090.    
     26      1    364    410      -2090.    
     27      1    369    418      -2090.    
     28      1    367    417      -2090.    
     29      1    365    415      -2090.    
     30      1    402    447      -2090.    
     31      1    400    446      -2090.    
     32      1    392    444      -2090.    
     33      1    391    441      -2090.    
     34      1    403    448      -2090.    
     35      1    405    447      -2090.    
     36      1    362    410      -2090.    
     37      1    362    411      -2090.    
     38      1    363    412      -2090.    
     39      1    375    421      -2090.    
     40      1    383    430      -2090.    
     41      1    397    445      -2090.    
     42      1    360    403      -2090.    
     43      1    350    401      -2090.    
     44      1    346    393      -2522.    
     45      1    333    387      -2522.    
     46      1    328    384      -2522.    
     47      1    326    383      -2522.    
     48      1    323    378      -2522.    
     49      1    321    378      -2522.    
     50      1    322    376      -2522.    
     51      1    316    374      -2522.    
     52      1    311    371      -2522.    
     53      1    307    369      -2522.    
     54      1    305    368      -2522.    
     55      1    303    368      -2522.    
     56      1    300    369      -2522.    
     57      1    293    364      -2522.    
     58      1    292    362      -2522.    
     59      1    278    350      -2522.    
     60      1    274    351      -2522.    
     61      1    273    350      -2522.    
     62      1    271    350      -2522.    
     63      1    267    348      -2522.    
     64      1    263    348      -2522.    
     65      1    263    348      -2522.    
     66      1    248    347      -2522.    
     67      1    243    342      -2522.    
     68      1    242    339      -2522.    
     69      1    238    341      -2522.    
     70      1    233    340      -2522.    
     71      1    232    340      -2522.    
     72      1    229    341      -2522.    
     73      1    227    341      -2522.    
     74      1    219    342      -2522.    
     75      1    219    336      -2522.    
     76      1    199    329      -2522.    
     77      1    191    332      -3560.    
     78      1    190    332      -3560.    
     79      1    130    310      -3560.    
     80      1    123    305      -3560.    
     81      1    104    289      -3560.    
     82      1     96    287      -3788.    
     83      1     95    284      -3788.    
     84      1     95    280      -3788.    
     85      1     93    276      -3788.    
     86      1     94    275      -3788.    
     87      1     90    277      -3788.    
     88      1     90    273      -3788.    
     89      1     86    271      -3788.    
     90      1     85    270      -3788.    
     91      1     84    265      -3788.    
     92      1     85    265      -3788.    
     93      1     84    264      -3788.    
     94      1     79    263      -3788.    
     95      1     79    263      -3788.    
     96      1     76    262      -3788.    
     97      1     73    257      -3788.    
     98      1     74    255      -3788.    
     99      1     71    255      -3788.    
    100      1     66    253      -3788.    
    101      1     68    252      -3788.    
    102      1     69    250      -3788.    
    103      1     65    248      -3788.    
    104      1     68    248      -3788.    
    105      1     69    247      -3788.    
    106      1     73    247      -3788.    
    107      1     64    246      -3788.    
    108      1     69    245      -3788.    
    109      1     72    245      -3788.    
    110      1     69    241      -3788.    
    111      1     73    238      -3788.    
    112      1     70    238      -3788.    
    113      1     76    263      -3788.    
    114      1     66    232      -2343.    
    115      1     69    229      -2343.    
    116      1     71    228      -2343.    
    117      1     69    227      -2343.    
    118      1     72    219      -2343.    
    119      1     72    218      -2343.    
    120      1     72    218      -2343.    
    121      1     73    217      -2343.    
    122      1     77    219      -2343.    
    123      1     78    219      -2343.    
    124      1     83    213      -2343.    
    125      1     77    213      -2343.    
    126      1     81    211      -2343.    
    127      1     81    210      -2343.    
    128      1     81    210      -2343.    
    129      1     82    208      -2343.    
    130      1     80    205      -2343.    
    131      1     86    202      -2343.    
    132      1     84    200      -2343.    
    133      1     89    200      -2343.    
    134      1     89    199      -2343.    
    135      1     88    199      -2343.    
    136      1     86    199      -2343.    
    137      1     85    199      -2343.    
    138      1     82    197      -2343.    
    139      1     86    197      -2343.    
    140      1     88    198      -2343.    
    141      1     90    192      -2343.    
    142      1     89    191      -2343.    
    143      1     84    192      -2343.    
    144      1     91    189      -2343.    
    145      1     92    185      -2343.    
    146      1     87    183      -2343.    
    147      1     92    182      -2343.    
    148      1     90    182      -2343.    
    149      1     88    179      -2343.    
    150      1     89    176      -2343.    
    151      1     92    172      -2343.    
    152      1     93    164      -2343.    
    153      1     94    162      -2343.    
    154      1    103    156      -2343.    
    155      1    103    156      -2343.    
    156      1     96    154      -2343.    
    157      1     97    153      -2343.    
    158      1    122    139      -2343.    
    159      1     92     77      -2343.    
    160      1     94     77      -2343.    
    161      1     94     73      -2343.    
    162      1     97    152      -2343.    
    163      1    118    337      -666.7    
    164      1    133    319      -2678.    
    165      1    131    320      -3951.    
    166      1    133    321      -2956.    
    167      1    161    329      -2141.    
    168      1    178    330      -551.0    
    169      1    163    330      -1122.    
    170      1    131    320      -2473.    
    171      1    129    315      -3937.    
    172      1    162    329      -1959.    
    173      1    131    311      -826.1    
    174      1    221    340      -1994.    
    175      1    220    340      -1034.    
    176      1    221    340      -667.7    
    177      1    137    322      -2082.    
    178      1    137    321      -1407.    
    179      1    185    329      -2012.    
    180      1    183    329      -1473.    
    181      1    175    329      -585.3    
    182      1     79    243      -1490.    
    183      1     77    245      -2414.    
    184      1    199    329      -1617.    
    185      1    198    330      -2514.    
    186      1    140    328      -972.1    
    187      1    143    327      -863.6    
    188      1    139    327      -1331.    

    188 WELLS

 REUSING NON-PARAMETER DRAINS FROM LAST STRESS PERIOD

   1061 DRAINS

 REUSING SURF FROM LAST STRESS PERIOD

 REUSING EVTR FROM LAST STRESS PERIOD

 REUSING EXDP FROM LAST STRESS PERIOD



                           RECHARGE
 READING ON UNIT   19 WITH FORMAT: (510E15.6)          

 SOLVING FOR HEAD 
                                                   Max.-Head-Change                        Max.-Flux-Residual
  Residual-Control   Outer-Iter.   Inner-Iter.     Column Row Layer    Max.-Head-Change    Column Row Layer    Max.-Flux-Residual            L2-New               L2-Old           Solver-Max-Delh
          0                 1           3           263   79     1       0.2610666027E+01      77   94    1      -0.2009558844E+04      0.9273335461E+04      0.3673964592E+02      0.2610666027E+01
          0                 2           2           263   79     1      -0.2262628361E+00      77   94    1       0.2008633783E+03      0.9248227187E+03      0.9273335461E+04     -0.2262628361E+00
          0                 3           2           457  456     1       0.5900105565E-01      77   94    1       0.1004247587E+02      0.4623119512E+02      0.9248227187E+03      0.5900105565E-01

    ------------------------------------------------
       NWT REQUIRED            3 OUTER ITERATIONS 
       AND A TOTAL OF          7 INNER ITERATIONS.
    ------------------------------------------------

 NO OUTPUT CONTROL FOR STRESS PERIOD   31   TIME STEP    1

 WELLS WITH REDUCED PUMPING FOR STRESS PERIOD    31 TIME STEP     1
   LAY   ROW   COL         APPL.Q          ACT.Q        GW-HEAD       CELL-BOT
     1    92    77  -0.234339E+04  -0.489210E+03  -0.859082E+02  -0.930000E+02


 SOLVING FOR HEAD 
                                                   Max.-Head-Change                        Max.-Flux-Residual
  Residual-Control   Outer-Iter.   Inner-Iter.     Column Row Layer    Max.-Head-Change    Column Row Layer    Max.-Flux-Residual            L2-New               L2-Old           Solver-Max-Delh
          0                 1           3           263   79     1       0.8987565664E+00      77   94    1      -0.2008071723E+04      0.7936165566E+04      0.4623119512E+02      0.8987565664E+00
          0                 2           2           263   79     1      -0.7744555078E-01      77   94    1       0.2007147918E+03      0.7930719077E+03      0.7936165566E+04     -0.7744555078E-01

    ------------------------------------------------
       NWT REQUIRED            2 OUTER ITERATIONS 
       AND A TOTAL OF          5 INNER ITERATIONS.
    ------------------------------------------------

 NO OUTPUT CONTROL FOR STRESS PERIOD   31   TIME STEP    2

 WELLS WITH REDUCED PUMPING FOR STRESS PERIOD    31 TIME STEP     2
   LAY   ROW   COL         APPL.Q          ACT.Q        GW-HEAD       CELL-BOT
     1    92    77  -0.234339E+04  -0.487278E+03  -0.859242E+02  -0.930000E+02


 SOLVING FOR HEAD 
                                                   Max.-Head-Change                        Max.-Flux-Residual
  Residual-Control   Outer-Iter.   Inner-Iter.     Column Row Layer    Max.-Head-Change    Column Row Layer    Max.-Flux-Residual            L2-New               L2-Old           Solver-Max-Delh
          0                 1           3            77   94     1      -0.8360916244E+00      77   94    1      -0.2006579539E+04      0.7567126407E+04      0.3964959202E+02     -0.8360916244E+00
          0                 2           2            77   94     1       0.7218074903E-01      77   94    1       0.2005657008E+03      0.7564613030E+03      0.7567126407E+04      0.7218074903E-01

    ------------------------------------------------
       NWT REQUIRED            2 OUTER ITERATIONS 
       AND A TOTAL OF          5 INNER ITERATIONS.
    ------------------------------------------------

 NO OUTPUT CONTROL FOR STRESS PERIOD   31   TIME STEP    3

 WELLS WITH REDUCED PUMPING FOR STRESS PERIOD    31 TIME STEP     3
   LAY   ROW   COL         APPL.Q          ACT.Q        GW-HEAD       CELL-BOT
     1    92    77  -0.234339E+04  -0.486259E+03  -0.859326E+02  -0.930000E+02


 SOLVING FOR HEAD 
                                                   Max.-Head-Change                        Max.-Flux-Residual
  Residual-Control   Outer-Iter.   Inner-Iter.     Column Row Layer    Max.-Head-Change    Column Row Layer    Max.-Flux-Residual            L2-New               L2-Old           Solver-Max-Delh
          0                 1           3            77   94     1      -0.8355028925E+00      77   94    1      -0.2005089329E+04      0.7349375160E+04      0.3782099739E+02     -0.8355028925E+00
          0                 2           2            77   94     1       0.7212993960E-01      77   94    1       0.2004168076E+03      0.7347422629E+03      0.7349375160E+04      0.7212993960E-01

    ------------------------------------------------
       NWT REQUIRED            2 OUTER ITERATIONS 
       AND A TOTAL OF          5 INNER ITERATIONS.
    ------------------------------------------------

 NO OUTPUT CONTROL FOR STRESS PERIOD   31   TIME STEP    4

 WELLS WITH REDUCED PUMPING FOR STRESS PERIOD    31 TIME STEP     4
   LAY   ROW   COL         APPL.Q          ACT.Q        GW-HEAD       CELL-BOT
     1    92    77  -0.234339E+04  -0.485707E+03  -0.859372E+02  -0.930000E+02


 SOLVING FOR HEAD 
                                                   Max.-Head-Change                        Max.-Flux-Residual
  Residual-Control   Outer-Iter.   Inner-Iter.     Column Row Layer    Max.-Head-Change    Column Row Layer    Max.-Flux-Residual            L2-New               L2-Old           Solver-Max-Delh
          0                 1           3            77   94     1      -0.8349149335E+00      77   94    1      -0.2003601134E+04      0.7195460896E+04      0.3673569449E+02     -0.8349149335E+00
          0                 2           2            77   94     1       0.7207919727E-01      77   94    1       0.2002681160E+03      0.7200264804E+03      0.7195460896E+04      0.7207919727E-01

    ------------------------------------------------
       NWT REQUIRED            2 OUTER ITERATIONS 
       AND A TOTAL OF          5 INNER ITERATIONS.
    ------------------------------------------------

 NO OUTPUT CONTROL FOR STRESS PERIOD   31   TIME STEP    5

 WELLS WITH REDUCED PUMPING FOR STRESS PERIOD    31 TIME STEP     5
   LAY   ROW   COL         APPL.Q          ACT.Q        GW-HEAD       CELL-BOT
     1    77   213  -0.234339E+04  -0.234098E+04   0.159744E+03   0.148000E+03
     1    92    77  -0.234339E+04  -0.485395E+03  -0.859398E+02  -0.930000E+02


 SOLVING FOR HEAD 
                                                   Max.-Head-Change                        Max.-Flux-Residual
  Residual-Control   Outer-Iter.   Inner-Iter.     Column Row Layer    Max.-Head-Change    Column Row Layer    Max.-Flux-Residual            L2-New               L2-Old           Solver-Max-Delh
          0                 1           3            77   94     1      -0.8343277354E+00      77   94    1      -0.2002114926E+04      0.7075913706E+04      0.3601922177E+02     -0.8343277354E+00
          0                 2           2            77   94     1       0.7202852102E-01      77   94    1       0.2001196229E+03      0.7098511903E+03      0.7075913706E+04      0.7202852102E-01

    ------------------------------------------------
       NWT REQUIRED            2 OUTER ITERATIONS 
       AND A TOTAL OF          5 INNER ITERATIONS.
    ------------------------------------------------

 NO OUTPUT CONTROL FOR STRESS PERIOD   31   TIME STEP    6

 WELLS WITH REDUCED PUMPING FOR STRESS PERIOD    31 TIME STEP     6
   LAY   ROW   COL         APPL.Q          ACT.Q        GW-HEAD       CELL-BOT
     1    77   213  -0.234339E+04  -0.232027E+04   0.159267E+03   0.148000E+03
     1    92    77  -0.234339E+04  -0.485206E+03  -0.859413E+02  -0.930000E+02


 SOLVING FOR HEAD 
                                                   Max.-Head-Change                        Max.-Flux-Residual
  Residual-Control   Outer-Iter.   Inner-Iter.     Column Row Layer    Max.-Head-Change    Column Row Layer    Max.-Flux-Residual            L2-New               L2-Old           Solver-Max-Delh
          0                 1           3            77   94     1      -0.8337412965E+00      77   94    1      -0.2000630698E+04      0.6974773679E+04      0.3551216996E+02     -0.8337412965E+00
          0                 2           2            77   94     1       0.7197791046E-01      77   94    1       0.1999713279E+03      0.6993551835E+03      0.6974773679E+04      0.7197791046E-01

    ------------------------------------------------
       NWT REQUIRED            2 OUTER ITERATIONS 
       AND A TOTAL OF          5 INNER ITERATIONS.
    ------------------------------------------------

 NO OUTPUT CONTROL FOR STRESS PERIOD   31   TIME STEP    7

 WELLS WITH REDUCED PUMPING FOR STRESS PERIOD    31 TIME STEP     7
   LAY   ROW   COL         APPL.Q          ACT.Q        GW-HEAD       CELL-BOT
     1    77   213  -0.234339E+04  -0.228157E+04   0.158807E+03   0.148000E+03
     1    92    77  -0.234339E+04  -0.485079E+03  -0.859424E+02  -0.930000E+02


 SOLVING FOR HEAD 
                                                   Max.-Head-Change                        Max.-Flux-Residual
  Residual-Control   Outer-Iter.   Inner-Iter.     Column Row Layer    Max.-Head-Change    Column Row Layer    Max.-Flux-Residual            L2-New               L2-Old           Solver-Max-Delh
          0                 1           3            77   94     1      -0.8331556245E+00      77   94    1      -0.1999148471E+04      0.6885272694E+04      0.3498369180E+02     -0.8331556245E+00
          0                 2           2            77   94     1       0.7192736623E-01      77   94    1       0.1998232326E+03      0.6907709581E+03      0.6885272694E+04      0.7192736623E-01

    ------------------------------------------------
       NWT REQUIRED            2 OUTER ITERATIONS 
       AND A TOTAL OF          5 INNER ITERATIONS.
    ------------------------------------------------

 NO OUTPUT CONTROL FOR STRESS PERIOD   31   TIME STEP    8

 WELLS WITH REDUCED PUMPING FOR STRESS PERIOD    31 TIME STEP     8
   LAY   ROW   COL         APPL.Q          ACT.Q        GW-HEAD       CELL-BOT
     1    77   213  -0.234339E+04  -0.222909E+04   0.158368E+03   0.148000E+03
     1    92    77  -0.234339E+04  -0.484982E+03  -0.859432E+02  -0.930000E+02
     1    94    73  -0.234339E+04  -0.234149E+04  -0.541518E+02  -0.740000E+02


 SOLVING FOR HEAD 
                                                   Max.-Head-Change                        Max.-Flux-Residual
  Residual-Control   Outer-Iter.   Inner-Iter.     Column Row Layer    Max.-Head-Change    Column Row Layer    Max.-Flux-Residual            L2-New               L2-Old           Solver-Max-Delh
          0                 1           3            77   94     1      -0.8325707084E+00      77   94    1      -0.1997668216E+04      0.6803848210E+04      0.3457240829E+02     -0.8325707084E+00
          0                 2           2            77   94     1       0.7187688728E-01      77   94    1       0.1996753344E+03      0.6846439648E+03      0.6803848210E+04      0.7187688728E-01

    ------------------------------------------------
       NWT REQUIRED            2 OUTER ITERATIONS 
       AND A TOTAL OF          5 INNER ITERATIONS.
    ------------------------------------------------

 NO OUTPUT CONTROL FOR STRESS PERIOD   31   TIME STEP    9

 WELLS WITH REDUCED PUMPING FOR STRESS PERIOD    31 TIME STEP     9
   LAY   ROW   COL         APPL.Q          ACT.Q        GW-HEAD       CELL-BOT
     1    77   213  -0.234339E+04  -0.216695E+04   0.157955E+03   0.148000E+03
     1    92    77  -0.234339E+04  -0.484902E+03  -0.859438E+02  -0.930000E+02
     1    94    73  -0.234339E+04  -0.232519E+04  -0.548630E+02  -0.740000E+02


 SOLVING FOR HEAD 
                                                   Max.-Head-Change                        Max.-Flux-Residual
  Residual-Control   Outer-Iter.   Inner-Iter.     Column Row Layer    Max.-Head-Change    Column Row Layer    Max.-Flux-Residual            L2-New               L2-Old           Solver-Max-Delh
          0                 1           3            77   94     1      -0.8319865647E+00      77   94    1      -0.1996189973E+04      0.6725372510E+04      0.3426333727E+02     -0.8319865647E+00
          0                 2           2            77   94     1       0.7182647500E-01      77   94    1       0.1995276372E+03      0.6762410743E+03      0.6725372510E+04      0.7182647500E-01

    ------------------------------------------------
       NWT REQUIRED            2 OUTER ITERATIONS 
       AND A TOTAL OF          5 INNER ITERATIONS.
    ------------------------------------------------

 OUTPUT CONTROL FOR STRESS PERIOD   31   TIME STEP   10
    SAVE HEAD FOR ALL LAYERS

 WELLS WITH REDUCED PUMPING FOR STRESS PERIOD    31 TIME STEP    10
   LAY   ROW   COL         APPL.Q          ACT.Q        GW-HEAD       CELL-BOT
     1    77   213  -0.234339E+04  -0.209887E+04   0.157570E+03   0.148000E+03
     1    92    77  -0.234339E+04  -0.484828E+03  -0.859444E+02  -0.930000E+02
     1    94    73  -0.234339E+04  -0.229394E+04  -0.555615E+02  -0.740000E+02


 HEAD WILL BE SAVED ON UNIT   51 AT END OF TIME STEP   10, STRESS PERIOD   31
1
  VOLUMETRIC BUDGET FOR ENTIRE MODEL AT END OF TIME STEP   10, STRESS PERIOD  31
  ------------------------------------------------------------------------------

     CUMULATIVE VOLUMES      L**3       RATES FOR THIS TIME STEP      L**3/T
     ------------------                 ------------------------

           IN:                                      IN:
           ---                                      ---
             STORAGE =   370271328.0000               STORAGE =      323920.1562
       CONSTANT HEAD =    46844208.0000         CONSTANT HEAD =       51605.0391
               WELLS =           0.0000                 WELLS =           0.0000
              DRAINS =           0.0000                DRAINS =           0.0000
                  ET =           0.0000                    ET =           0.0000
            RECHARGE =   174227696.0000              RECHARGE =      219946.7031

            TOTAL IN =   591343232.0000              TOTAL IN =      595471.8750

          OUT:                                     OUT:
          ----                                     ----
             STORAGE =   134493808.0000               STORAGE =       22487.3359
       CONSTANT HEAD =           0.0000         CONSTANT HEAD =           0.0000
               WELLS =   308898048.0000                 WELLS =      400636.6250
              DRAINS =   101954944.0000                DRAINS =      124417.2344
                  ET =    45285408.0000                    ET =       46427.3164
            RECHARGE =       81860.0000              RECHARGE =           0.0000

           TOTAL OUT =   590714048.0000             TOTAL OUT =      593968.5000

            IN - OUT =      629184.0000              IN - OUT =        1503.3750

 PERCENT DISCREPANCY =           0.11     PERCENT DISCREPANCY =           0.25






         TIME SUMMARY AT END OF TIME STEP   10 IN STRESS PERIOD   31
                    SECONDS     MINUTES      HOURS       DAYS        YEARS
                    -----------------------------------------------------------
   TIME STEP LENGTH 2.62656E+05  4377.6      72.960      3.0400     8.32307E-03
 STRESS PERIOD TIME 2.62656E+06  43776.      729.60      30.400     8.32307E-02
         TOTAL TIME 8.14231E+07 1.35705E+06  22618.      942.40      2.5801    
1
1
                            STRESS PERIOD NO.   32, LENGTH =   30.40000    
                            -----------------------------------------------

                              NUMBER OF TIME STEPS =    10

                               MULTIPLIER FOR DELT =     1.000

                            INITIAL TIME STEP SIZE =   3.040000    

 WELL NO.  LAYER   ROW   COL   STRESS RATE         
 --------------------------------------------------
      1      1     69    225      -2678.    
      2      1     71    224       0.000    
      3      1     74    220       0.000    
      4      1     73    220       0.000    
      5      1     71    223       0.000    
      6      1     71    223       0.000    
      7      1     72    223       0.000    
      8      1     92    173       0.000    
      9      1     94    174       0.000    
     10      1     93    175       0.000    
     11      1    203    328       0.000    
     12      1    438    460      -0.000    
     13      1    436    461      -0.000    
     14      1    410    454      -0.000    
     15      1    433    460      -0.000    
     16      1    431    462      -0.000    
     17      1    417    459      -0.000    
     18      1    418    458      -0.000    
     19      1    414    455      -0.000    
     20      1    443    464      -0.000    
     21      1    379    425      -0.000    
     22      1    362    405      -0.000    
     23      1    361    405      -0.000    
     24      1    362    406      -0.000    
     25      1    363    408      -0.000    
     26      1    364    410      -0.000    
     27      1    369    418      -0.000    
     28      1    367    417      -0.000    
     29      1    365    415      -0.000    
     30      1    402    447      -0.000    
     31      1    400    446      -0.000    
     32      1    392    444      -0.000    
     33      1    391    441      -0.000    
     34      1    403    448      -0.000    
     35      1    405    447      -0.000    
     36      1    362    410      -0.000    
     37      1    362    411      -0.000    
     38      1    363    412      -0.000    
     39      1    375    421      -0.000    
     40      1    383    430      -0.000    
     41      1    397    445      -0.000    
     42      1    360    403      -0.000    
     43      1    350    401      -0.000    
     44      1    346    393      -49.88    
     45      1    333    387      -49.88    
     46      1    328    384      -49.88    
     47      1    326    383      -49.88    
     48      1    323    378      -49.88    
     49      1    321    378      -49.88    
     50      1    322    376      -49.88    
     51      1    316    374      -49.88    
     52      1    311    371      -49.88    
     53      1    307    369      -49.88    
     54      1    305    368      -49.88    
     55      1    303    368      -49.88    
     56      1    300    369      -49.88    
     57      1    293    364      -49.88    
     58      1    292    362      -49.88    
     59      1    278    350      -49.88    
     60      1    274    351      -49.88    
     61      1    273    350      -49.88    
     62      1    271    350      -49.88    
     63      1    267    348      -49.88    
     64      1    263    348      -49.88    
     65      1    263    348      -49.88    
     66      1    248    347      -49.88    
     67      1    243    342      -49.88    
     68      1    242    339      -49.88    
     69      1    238    341      -49.88    
     70      1    233    340      -49.88    
     71      1    232    340      -49.88    
     72      1    229    341      -49.88    
     73      1    227    341      -49.88    
     74      1    219    342      -49.88    
     75      1    219    336      -49.88    
     76      1    199    329      -49.88    
     77      1    191    332      -0.000    
     78      1    190    332      -0.000    
     79      1    130    310      -0.000    
     80      1    123    305      -0.000    
     81      1    104    289      -0.000    
     82      1     96    287      -510.6    
     83      1     95    284      -510.6    
     84      1     95    280      -510.6    
     85      1     93    276      -510.6    
     86      1     94    275      -510.6    
     87      1     90    277      -510.6    
     88      1     90    273      -510.6    
     89      1     86    271      -510.6    
     90      1     85    270      -510.6    
     91      1     84    265      -510.6    
     92      1     85    265      -510.6    
     93      1     84    264      -510.6    
     94      1     79    263      -510.6    
     95      1     79    263      -510.6    
     96      1     76    262      -510.6    
     97      1     73    257      -510.6    
     98      1     74    255      -510.6    
     99      1     71    255      -510.6    
    100      1     66    253      -510.6    
    101      1     68    252      -510.6    
    102      1     69    250      -510.6    
    103      1     65    248      -510.6    
    104      1     68    248      -510.6    
    105      1     69    247      -510.6    
    106      1     73    247      -510.6    
    107      1     64    246      -510.6    
    108      1     69    245      -510.6    
    109      1     72    245      -510.6    
    110      1     69    241      -510.6    
    111      1     73    238      -510.6    
    112      1     70    238      -510.6    
    113      1     76    263      -510.6    
    114      1     66    232      -620.9    
    115      1     69    229      -620.9    
    116      1     71    228      -620.9    
    117      1     69    227      -620.9    
    118      1     72    219      -620.9    
    119      1     72    218      -620.9    
    120      1     72    218      -620.9    
    121      1     73    217      -620.9    
    122      1     77    219      -620.9    
    123      1     78    219      -620.9    
    124      1     83    213      -620.9    
    125      1     77    213      -620.9    
    126      1     81    211      -620.9    
    127      1     81    210      -620.9    
    128      1     81    210      -620.9    
    129      1     82    208      -620.9    
    130      1     80    205      -620.9    
    131      1     86    202      -620.9    
    132      1     84    200      -620.9    
    133      1     89    200      -620.9    
    134      1     89    199      -620.9    
    135      1     88    199      -620.9    
    136      1     86    199      -620.9    
    137      1     85    199      -620.9    
    138      1     82    197      -620.9    
    139      1     86    197      -620.9    
    140      1     88    198      -620.9    
    141      1     90    192      -620.9    
    142      1     89    191      -620.9    
    143      1     84    192      -620.9    
    144      1     91    189      -620.9    
    145      1     92    185      -620.9    
    146      1     87    183      -620.9    
    147      1     92    182      -620.9    
    148      1     90    182      -620.9    
    149      1     88    179      -620.9    
    150      1     89    176      -620.9    
    151      1     92    172      -620.9    
    152      1     93    164      -620.9    
    153      1     94    162      -620.9    
    154      1    103    156      -620.9    
    155      1    103    156      -620.9    
    156      1     96    154      -620.9    
    157      1     97    153      -620.9    
    158      1    122    139      -620.9    
    159      1     92     77      -620.9    
    160      1     94     77      -620.9    
    161      1     94     73      -620.9    
    162      1     97    152      -620.9    
    163      1    118    337      -666.7    
    164      1    133    319      -2678.    
    165      1    131    320      -3951.    
    166      1    133    321      -2956.    
    167      1    161    329      -2141.    
    168      1    178    330      -551.0    
    169      1    163    330      -1122.    
    170      1    131    320      -2473.    
    171      1    129    315      -3937.    
    172      1    162    329      -1959.    
    173      1    131    311      -826.1    
    174      1    221    340      -1994.    
    175      1    220    340      -1034.    
    176      1    221    340      -667.7    
    177      1    137    322      -2082.    
    178      1    137    321      -1407.    
    179      1    185    329      -2012.    
    180      1    183    329      -1473.    
    181      1    175    329      -585.3    
    182      1     79    243      -1490.    
    183      1     77    245      -2414.    
    184      1    199    329      -1617.    
    185      1    198    330      -2514.    
    186      1    140    328      -972.1    
    187      1    143    327      -863.6    
    188      1    139    327      -1331.    

    188 WELLS

 REUSING NON-PARAMETER DRAINS FROM LAST STRESS PERIOD

   1061 DRAINS

 REUSING SURF FROM LAST STRESS PERIOD

 REUSING EVTR FROM LAST STRESS PERIOD

 REUSING EXDP FROM LAST STRESS PERIOD



                           RECHARGE
 READING ON UNIT   19 WITH FORMAT: (510E15.6)          

 SOLVING FOR HEAD 
                                                   Max.-Head-Change                        Max.-Flux-Residual
  Residual-Control   Outer-Iter.   Inner-Iter.     Column Row Layer    Max.-Head-Change    Column Row Layer    Max.-Flux-Residual            L2-New               L2-Old           Solver-Max-Delh
          0                 1           3           263   79     1       0.1903767777E+02     263   79    1       0.6513687890E+04      0.2814205096E+05      0.3383792985E+02      0.1903767777E+02
          0                 2           2           263   79     1      -0.1820659632E+01     263   79    1      -0.7457804714E+03      0.2972321352E+04      0.2814205096E+05     -0.1820659632E+01
          0                 3           2           263   79     1      -0.9305048506E-01     263   79    1      -0.3807557380E+02      0.1535952970E+03      0.2972321352E+04     -0.9305048506E-01

    ------------------------------------------------
       NWT REQUIRED            3 OUTER ITERATIONS 
       AND A TOTAL OF          7 INNER ITERATIONS.
    ------------------------------------------------

 NO OUTPUT CONTROL FOR STRESS PERIOD   32   TIME STEP    1

 WELLS WITH REDUCED PUMPING FOR STRESS PERIOD    32 TIME STEP     1
   LAY   ROW   COL         APPL.Q          ACT.Q        GW-HEAD       CELL-BOT
     1    77   213  -0.620891E+03  -0.565191E+03   0.157757E+03   0.148000E+03
     1    92    77  -0.620891E+03  -0.195340E+03  -0.839920E+02  -0.930000E+02
     1    94    73  -0.620891E+03  -0.606850E+03  -0.556249E+02  -0.740000E+02


 SOLVING FOR HEAD 
                                                   Max.-Head-Change                        Max.-Flux-Residual
  Residual-Control   Outer-Iter.   Inner-Iter.     Column Row Layer    Max.-Head-Change    Column Row Layer    Max.-Flux-Residual            L2-New               L2-Old           Solver-Max-Delh
          0                 1           3           263   79     1       0.7583766646E+01     156  103    1       0.2551931768E+04      0.1208261684E+05      0.1535952970E+03      0.7583766646E+01
          0                 2           2           263   79     1      -0.6950623146E+00     263   79    1      -0.2694914551E+03      0.1238395540E+04      0.1208261684E+05     -0.6950623146E+00
          0                 3           2           457  456     1       0.5520982944E-01     263   79    1      -0.1365441078E+02      0.6239272725E+02      0.1238395540E+04      0.5520982944E-01

    ------------------------------------------------
       NWT REQUIRED            3 OUTER ITERATIONS 
       AND A TOTAL OF          7 INNER ITERATIONS.
    ------------------------------------------------

 NO OUTPUT CONTROL FOR STRESS PERIOD   32   TIME STEP    2

 WELLS WITH REDUCED PUMPING FOR STRESS PERIOD    32 TIME STEP     2
   LAY   ROW   COL         APPL.Q          ACT.Q        GW-HEAD       CELL-BOT
     1    77   213  -0.620891E+03  -0.573471E+03   0.157940E+03   0.148000E+03
     1    92    77  -0.620891E+03  -0.250879E+03  -0.824984E+02  -0.930000E+02
     1    94    73  -0.620891E+03  -0.605888E+03  -0.556878E+02  -0.740000E+02


 SOLVING FOR HEAD 
                                                   Max.-Head-Change                        Max.-Flux-Residual
  Residual-Control   Outer-Iter.   Inner-Iter.     Column Row Layer    Max.-Head-Change    Column Row Layer    Max.-Flux-Residual            L2-New               L2-Old           Solver-Max-Delh
          0                 1           3           263   79     1       0.3292042736E+01     156  103    1       0.2066574712E+04      0.8909943166E+04      0.6239272725E+02      0.3292042736E+01
          0                 2           2           263   79     1      -0.2985680610E+00     156  103    1      -0.2067845455E+03      0.8950287913E+03      0.8909943166E+04     -0.2985680610E+00
          0                 3           2           457  456     1       0.5449352454E-01     156  103    1      -0.1034017024E+02      0.4476668251E+02      0.8950287913E+03      0.5449352454E-01

    ------------------------------------------------
       NWT REQUIRED            3 OUTER ITERATIONS 
       AND A TOTAL OF          7 INNER ITERATIONS.
    ------------------------------------------------

 NO OUTPUT CONTROL FOR STRESS PERIOD   32   TIME STEP    3

 WELLS WITH REDUCED PUMPING FOR STRESS PERIOD    32 TIME STEP     3
   LAY   ROW   COL         APPL.Q          ACT.Q        GW-HEAD       CELL-BOT
     1    77   213  -0.620891E+03  -0.580980E+03   0.158118E+03   0.148000E+03
     1    92    77  -0.620891E+03  -0.294417E+03  -0.813633E+02  -0.930000E+02
     1    94    73  -0.620891E+03  -0.604902E+03  -0.557504E+02  -0.740000E+02


 SOLVING FOR HEAD 
                                                   Max.-Head-Change                        Max.-Flux-Residual
  Residual-Control   Outer-Iter.   Inner-Iter.     Column Row Layer    Max.-Head-Change    Column Row Layer    Max.-Flux-Residual            L2-New               L2-Old           Solver-Max-Delh
          0                 1           3           263   79     1       0.1593538816E+01     156  103    1       0.1687779118E+04      0.7368918946E+04      0.4476668251E+02      0.1593538816E+01
          0                 2           2           263   79     1      -0.1398320538E+00     156  103    1      -0.1688862633E+03      0.7409929453E+03      0.7368918946E+04     -0.1398320538E+00
          0                 3           2           457  456     1       0.5377209026E-01     156  103    1      -0.8445117400E+01      0.3706191808E+02      0.7409929453E+03      0.5377209026E-01

    ------------------------------------------------
       NWT REQUIRED            3 OUTER ITERATIONS 
       AND A TOTAL OF          7 INNER ITERATIONS.
    ------------------------------------------------

 NO OUTPUT CONTROL FOR STRESS PERIOD   32   TIME STEP    4

 WELLS WITH REDUCED PUMPING FOR STRESS PERIOD    32 TIME STEP     4
   LAY   ROW   COL         APPL.Q          ACT.Q        GW-HEAD       CELL-BOT
     1    77   213  -0.620891E+03  -0.587750E+03   0.158291E+03   0.148000E+03
     1    92    77  -0.620891E+03  -0.327688E+03  -0.805018E+02  -0.930000E+02
     1    94    73  -0.620891E+03  -0.603893E+03  -0.558127E+02  -0.740000E+02


 SOLVING FOR HEAD 
                                                   Max.-Head-Change                        Max.-Flux-Residual
  Residual-Control   Outer-Iter.   Inner-Iter.     Column Row Layer    Max.-Head-Change    Column Row Layer    Max.-Flux-Residual            L2-New               L2-Old           Solver-Max-Delh
          0                 1           3           264   78     1       0.1074464406E+01     383  326    1       0.1450601302E+04      0.6424500194E+04      0.3706191808E+02      0.1074464406E+01
          0                 2           2           264   78     1      -0.9420932187E-01     383  326    1      -0.1451466043E+03      0.6440550149E+03      0.6424500194E+04     -0.9420932187E-01

    ------------------------------------------------
       NWT REQUIRED            2 OUTER ITERATIONS 
       AND A TOTAL OF          5 INNER ITERATIONS.
    ------------------------------------------------

 NO OUTPUT CONTROL FOR STRESS PERIOD   32   TIME STEP    5

 WELLS WITH REDUCED PUMPING FOR STRESS PERIOD    32 TIME STEP     5
   LAY   ROW   COL         APPL.Q          ACT.Q        GW-HEAD       CELL-BOT
     1    77   213  -0.620891E+03  -0.593840E+03   0.158460E+03   0.148000E+03
     1    92    77  -0.620891E+03  -0.352970E+03  -0.798447E+02  -0.930000E+02
     1    94    73  -0.620891E+03  -0.602857E+03  -0.558748E+02  -0.740000E+02


 SOLVING FOR HEAD 
                                                   Max.-Head-Change                        Max.-Flux-Residual
  Residual-Control   Outer-Iter.   Inner-Iter.     Column Row Layer    Max.-Head-Change    Column Row Layer    Max.-Flux-Residual            L2-New               L2-Old           Solver-Max-Delh
          0                 1           3           264   78     1       0.8884122937E+00     383  326    1       0.1314748379E+04      0.5770020763E+04      0.3220582464E+02      0.8884122937E+00
          0                 2           2           264   78     1      -0.7885846518E-01     383  326    1      -0.1315560011E+03      0.5773708496E+03      0.5770020763E+04     -0.7885846518E-01

    ------------------------------------------------
       NWT REQUIRED            2 OUTER ITERATIONS 
       AND A TOTAL OF          5 INNER ITERATIONS.
    ------------------------------------------------

 NO OUTPUT CONTROL FOR STRESS PERIOD   32   TIME STEP    6

 WELLS WITH REDUCED PUMPING FOR STRESS PERIOD    32 TIME STEP     6
   LAY   ROW   COL         APPL.Q          ACT.Q        GW-HEAD       CELL-BOT
     1    77   213  -0.620891E+03  -0.599246E+03   0.158626E+03   0.148000E+03
     1    92    77  -0.620891E+03  -0.372000E+03  -0.793458E+02  -0.930000E+02
     1    94    73  -0.620891E+03  -0.601801E+03  -0.559365E+02  -0.740000E+02


 SOLVING FOR HEAD 
                                                   Max.-Head-Change                        Max.-Flux-Residual
  Residual-Control   Outer-Iter.   Inner-Iter.     Column Row Layer    Max.-Head-Change    Column Row Layer    Max.-Flux-Residual            L2-New               L2-Old           Solver-Max-Delh
          0                 1           3           264   78     1       0.7232650444E+00     383  326    1       0.1196371290E+04      0.5287612999E+04      0.2886766444E+02      0.7232650444E+00
          0                 2           2           264   78     1      -0.6322565117E-01     383  326    1      -0.1197119108E+03      0.5306114017E+03      0.5287612999E+04     -0.6322565117E-01

    ------------------------------------------------
       NWT REQUIRED            2 OUTER ITERATIONS 
       AND A TOTAL OF          5 INNER ITERATIONS.
    ------------------------------------------------

 NO OUTPUT CONTROL FOR STRESS PERIOD   32   TIME STEP    7

 WELLS WITH REDUCED PUMPING FOR STRESS PERIOD    32 TIME STEP     7
   LAY   ROW   COL         APPL.Q          ACT.Q        GW-HEAD       CELL-BOT
     1    77   213  -0.620891E+03  -0.603996E+03   0.158788E+03   0.148000E+03
     1    92    77  -0.620891E+03  -0.386325E+03  -0.789666E+02  -0.930000E+02
     1    94    73  -0.620891E+03  -0.600724E+03  -0.559978E+02  -0.740000E+02


 SOLVING FOR HEAD 
                                                   Max.-Head-Change                        Max.-Flux-Residual
  Residual-Control   Outer-Iter.   Inner-Iter.     Column Row Layer    Max.-Head-Change    Column Row Layer    Max.-Flux-Residual            L2-New               L2-Old           Solver-Max-Delh
          0                 1           3           264   78     1       0.5907743259E+00     383  326    1       0.1092908134E+04      0.4915071244E+04      0.2653102022E+02      0.5907743259E+00
          0                 2           2           457  456     1       0.5241512083E-01     383  326    1      -0.1093588556E+03      0.4916983141E+03      0.4915071244E+04      0.5241512083E-01

    ------------------------------------------------
       NWT REQUIRED            2 OUTER ITERATIONS 
       AND A TOTAL OF          5 INNER ITERATIONS.
    ------------------------------------------------

 NO OUTPUT CONTROL FOR STRESS PERIOD   32   TIME STEP    8

 WELLS WITH REDUCED PUMPING FOR STRESS PERIOD    32 TIME STEP     8
   LAY   ROW   COL         APPL.Q          ACT.Q        GW-HEAD       CELL-BOT
     1    77   213  -0.620891E+03  -0.608115E+03   0.158947E+03   0.148000E+03
     1    92    77  -0.620891E+03  -0.397120E+03  -0.786783E+02  -0.930000E+02
     1    94    73  -0.620891E+03  -0.599628E+03  -0.560587E+02  -0.740000E+02


 SOLVING FOR HEAD 
                                                   Max.-Head-Change                        Max.-Flux-Residual
  Residual-Control   Outer-Iter.   Inner-Iter.     Column Row Layer    Max.-Head-Change    Column Row Layer    Max.-Flux-Residual            L2-New               L2-Old           Solver-Max-Delh
          0                 1           3           264   78     1       0.4870161223E+00     383  326    1       0.1002209704E+04      0.4617960472E+04      0.4916983141E+03      0.4870161223E+00
          0                 2           2           457  456     1       0.5205555637E-01     383  326    1      -0.1002839945E+03      0.4618432301E+03      0.4617960472E+04      0.5205555637E-01

    ------------------------------------------------
       NWT REQUIRED            2 OUTER ITERATIONS 
       AND A TOTAL OF          5 INNER ITERATIONS.
    ------------------------------------------------

 NO OUTPUT CONTROL FOR STRESS PERIOD   32   TIME STEP    9

 WELLS WITH REDUCED PUMPING FOR STRESS PERIOD    32 TIME STEP     9
   LAY   ROW   COL         APPL.Q          ACT.Q        GW-HEAD       CELL-BOT
     1    77   213  -0.620891E+03  -0.611625E+03   0.159102E+03   0.148000E+03
     1    92    77  -0.620891E+03  -0.405263E+03  -0.784590E+02  -0.930000E+02
     1    94    73  -0.620891E+03  -0.598513E+03  -0.561192E+02  -0.740000E+02


 SOLVING FOR HEAD 
                                                   Max.-Head-Change                        Max.-Flux-Residual
  Residual-Control   Outer-Iter.   Inner-Iter.     Column Row Layer    Max.-Head-Change    Column Row Layer    Max.-Flux-Residual            L2-New               L2-Old           Solver-Max-Delh
          0                 1           3           343  217     1       0.4099745836E+00     383  326    1       0.9224646115E+03      0.4375314255E+04      0.4618432301E+03      0.4099745836E+00
          0                 2           2           457  456     1       0.5168814006E-01     383  326    1      -0.9233829788E+02      0.4394617378E+03      0.4375314255E+04      0.5168814006E-01

    ------------------------------------------------
       NWT REQUIRED            2 OUTER ITERATIONS 
       AND A TOTAL OF          5 INNER ITERATIONS.
    ------------------------------------------------

 OUTPUT CONTROL FOR STRESS PERIOD   32   TIME STEP   10
    SAVE HEAD FOR ALL LAYERS

 WELLS WITH REDUCED PUMPING FOR STRESS PERIOD    32 TIME STEP    10
   LAY   ROW   COL         APPL.Q          ACT.Q        GW-HEAD       CELL-BOT
     1    77   213  -0.620891E+03  -0.614547E+03   0.159255E+03   0.148000E+03
     1    92    77  -0.620891E+03  -0.411407E+03  -0.782924E+02  -0.930000E+02
     1    94    73  -0.620891E+03  -0.597380E+03  -0.561793E+02  -0.740000E+02


 HEAD WILL BE SAVED ON UNIT   51 AT END OF TIME STEP   10, STRESS PERIOD   32
1
  VOLUMETRIC BUDGET FOR ENTIRE MODEL AT END OF TIME STEP   10, STRESS PERIOD  32
  ------------------------------------------------------------------------------

     CUMULATIVE VOLUMES      L**3       RATES FOR THIS TIME STEP      L**3/T
     ------------------                 ------------------------

           IN:                                      IN:
           ---                                      ---
             STORAGE =   375006784.0000               STORAGE =      128312.7734
       CONSTANT HEAD =    48413668.0000         CONSTANT HEAD =       51644.2891
               WELLS =           0.0000                 WELLS =           0.0000
              DRAINS =           0.0000                DRAINS =           0.0000
                  ET =           0.0000                    ET =           0.0000
            RECHARGE =   180180496.0000              RECHARGE =      195815.2812

            TOTAL IN =   603600960.0000              TOTAL IN =      375772.3438

          OUT:                                     OUT:
          ----                                     ----
             STORAGE =   138424208.0000               STORAGE =       96354.7734
       CONSTANT HEAD =           0.0000         CONSTANT HEAD =           0.0000
               WELLS =   311801760.0000                 WELLS =       95605.2266
              DRAINS =   105916432.0000                DRAINS =      134357.7656
                  ET =    46744844.0000                    ET =       49298.6523
            RECHARGE =       81860.0000              RECHARGE =           0.0000

           TOTAL OUT =   602969088.0000             TOTAL OUT =      375616.4062

            IN - OUT =      631872.0000              IN - OUT =         155.9375

 PERCENT DISCREPANCY =           0.10     PERCENT DISCREPANCY =           0.04






         TIME SUMMARY AT END OF TIME STEP   10 IN STRESS PERIOD   32
                    SECONDS     MINUTES      HOURS       DAYS        YEARS
                    -----------------------------------------------------------
   TIME STEP LENGTH 2.62656E+05  4377.6      72.960      3.0400     8.32307E-03
 STRESS PERIOD TIME 2.62656E+06  43776.      729.60      30.400     8.32307E-02
         TOTAL TIME 8.40497E+07 1.40083E+06  23347.      972.80      2.6634    
1
1
                            STRESS PERIOD NO.   33, LENGTH =   30.40000    
                            -----------------------------------------------

                              NUMBER OF TIME STEPS =    10

                               MULTIPLIER FOR DELT =     1.000

                            INITIAL TIME STEP SIZE =   3.040000    

 WELL NO.  LAYER   ROW   COL   STRESS RATE         
 --------------------------------------------------
      1      1     69    225      -2765.    
      2      1     71    224       0.000    
      3      1     74    220       0.000    
      4      1     73    220       0.000    
      5      1     71    223       0.000    
      6      1     71    223       0.000    
      7      1     72    223       0.000    
      8      1     92    173       0.000    
      9      1     94    174       0.000    
     10      1     93    175       0.000    
     11      1    203    328       0.000    
     12      1    438    460      -550.5    
     13      1    436    461      -550.5    
     14      1    410    454      -550.5    
     15      1    433    460      -550.5    
     16      1    431    462      -550.5    
     17      1    417    459      -550.5    
     18      1    418    458      -550.5    
     19      1    414    455      -550.5    
     20      1    443    464      -550.5    
     21      1    379    425      -550.5    
     22      1    362    405      -550.5    
     23      1    361    405      -550.5    
     24      1    362    406      -550.5    
     25      1    363    408      -550.5    
     26      1    364    410      -550.5    
     27      1    369    418      -550.5    
     28      1    367    417      -550.5    
     29      1    365    415      -550.5    
     30      1    402    447      -550.5    
     31      1    400    446      -550.5    
     32      1    392    444      -550.5    
     33      1    391    441      -550.5    
     34      1    403    448      -550.5    
     35      1    405    447      -550.5    
     36      1    362    410      -550.5    
     37      1    362    411      -550.5    
     38      1    363    412      -550.5    
     39      1    375    421      -550.5    
     40      1    383    430      -550.5    
     41      1    397    445      -550.5    
     42      1    360    403      -550.5    
     43      1    350    401      -550.5    
     44      1    346    393      -581.6    
     45      1    333    387      -581.6    
     46      1    328    384      -581.6    
     47      1    326    383      -581.6    
     48      1    323    378      -581.6    
     49      1    321    378      -581.6    
     50      1    322    376      -581.6    
     51      1    316    374      -581.6    
     52      1    311    371      -581.6    
     53      1    307    369      -581.6    
     54      1    305    368      -581.6    
     55      1    303    368      -581.6    
     56      1    300    369      -581.6    
     57      1    293    364      -581.6    
     58      1    292    362      -581.6    
     59      1    278    350      -581.6    
     60      1    274    351      -581.6    
     61      1    273    350      -581.6    
     62      1    271    350      -581.6    
     63      1    267    348      -581.6    
     64      1    263    348      -581.6    
     65      1    263    348      -581.6    
     66      1    248    347      -581.6    
     67      1    243    342      -581.6    
     68      1    242    339      -581.6    
     69      1    238    341      -581.6    
     70      1    233    340      -581.6    
     71      1    232    340      -581.6    
     72      1    229    341      -581.6    
     73      1    227    341      -581.6    
     74      1    219    342      -581.6    
     75      1    219    336      -581.6    
     76      1    199    329      -581.6    
     77      1    191    332      -0.000    
     78      1    190    332      -0.000    
     79      1    130    310      -0.000    
     80      1    123    305      -0.000    
     81      1    104    289      -0.000    
     82      1     96    287      -1045.    
     83      1     95    284      -1045.    
     84      1     95    280      -1045.    
     85      1     93    276      -1045.    
     86      1     94    275      -1045.    
     87      1     90    277      -1045.    
     88      1     90    273      -1045.    
     89      1     86    271      -1045.    
     90      1     85    270      -1045.    
     91      1     84    265      -1045.    
     92      1     85    265      -1045.    
     93      1     84    264      -1045.    
     94      1     79    263      -1045.    
     95      1     79    263      -1045.    
     96      1     76    262      -1045.    
     97      1     73    257      -1045.    
     98      1     74    255      -1045.    
     99      1     71    255      -1045.    
    100      1     66    253      -1045.    
    101      1     68    252      -1045.    
    102      1     69    250      -1045.    
    103      1     65    248      -1045.    
    104      1     68    248      -1045.    
    105      1     69    247      -1045.    
    106      1     73    247      -1045.    
    107      1     64    246      -1045.    
    108      1     69    245      -1045.    
    109      1     72    245      -1045.    
    110      1     69    241      -1045.    
    111      1     73    238      -1045.    
    112      1     70    238      -1045.    
    113      1     76    263      -1045.    
    114      1     66    232      -728.1    
    115      1     69    229      -728.1    
    116      1     71    228      -728.1    
    117      1     69    227      -728.1    
    118      1     72    219      -728.1    
    119      1     72    218      -728.1    
    120      1     72    218      -728.1    
    121      1     73    217      -728.1    
    122      1     77    219      -728.1    
    123      1     78    219      -728.1    
    124      1     83    213      -728.1    
    125      1     77    213      -728.1    
    126      1     81    211      -728.1    
    127      1     81    210      -728.1    
    128      1     81    210      -728.1    
    129      1     82    208      -728.1    
    130      1     80    205      -728.1    
    131      1     86    202      -728.1    
    132      1     84    200      -728.1    
    133      1     89    200      -728.1    
    134      1     89    199      -728.1    
    135      1     88    199      -728.1    
    136      1     86    199      -728.1    
    137      1     85    199      -728.1    
    138      1     82    197      -728.1    
    139      1     86    197      -728.1    
    140      1     88    198      -728.1    
    141      1     90    192      -728.1    
    142      1     89    191      -728.1    
    143      1     84    192      -728.1    
    144      1     91    189      -728.1    
    145      1     92    185      -728.1    
    146      1     87    183      -728.1    
    147      1     92    182      -728.1    
    148      1     90    182      -728.1    
    149      1     88    179      -728.1    
    150      1     89    176      -728.1    
    151      1     92    172      -728.1    
    152      1     93    164      -728.1    
    153      1     94    162      -728.1    
    154      1    103    156      -728.1    
    155      1    103    156      -728.1    
    156      1     96    154      -728.1    
    157      1     97    153      -728.1    
    158      1    122    139      -728.1    
    159      1     92     77      -728.1    
    160      1     94     77      -728.1    
    161      1     94     73      -728.1    
    162      1     97    152      -728.1    
    163      1    118    337      -666.7    
    164      1    133    319      -2678.    
    165      1    131    320      -3951.    
    166      1    133    321      -2956.    
    167      1    161    329      -2141.    
    168      1    178    330      -551.0    
    169      1    163    330      -1122.    
    170      1    131    320      -2473.    
    171      1    129    315      -3937.    
    172      1    162    329      -1959.    
    173      1    131    311      -826.1    
    174      1    221    340      -1994.    
    175      1    220    340      -1034.    
    176      1    221    340      -667.7    
    177      1    137    322      -2082.    
    178      1    137    321      -1407.    
    179      1    185    329      -2012.    
    180      1    183    329      -1473.    
    181      1    175    329      -585.3    
    182      1     79    243      -1490.    
    183      1     77    245      -2414.    
    184      1    199    329      -1617.    
    185      1    198    330      -2514.    
    186      1    140    328      -972.1    
    187      1    143    327      -863.6    
    188      1    139    327      -1331.    

    188 WELLS

 REUSING NON-PARAMETER DRAINS FROM LAST STRESS PERIOD

   1061 DRAINS

 REUSING SURF FROM LAST STRESS PERIOD

 REUSING EVTR FROM LAST STRESS PERIOD

 REUSING EXDP FROM LAST STRESS PERIOD



                           RECHARGE
 READING ON UNIT   19 WITH FORMAT: (510E15.6)          

 SOLVING FOR HEAD 
                                                   Max.-Head-Change                        Max.-Flux-Residual
  Residual-Control   Outer-Iter.   Inner-Iter.     Column Row Layer    Max.-Head-Change    Column Row Layer    Max.-Flux-Residual            L2-New               L2-Old           Solver-Max-Delh
          0                 1           3           263   79     1      -0.2819794676E+01     263   79    1      -0.1039934759E+04      0.5990471679E+04      0.4394617378E+03     -0.2819794676E+01
          0                 2           2           263   79     1       0.2379062556E+00     263   79    1       0.1026845193E+03      0.5996490701E+03      0.5990471679E+04      0.2379062556E+00
          0                 3           2           457  456     1       0.5091105207E-01     263   79    1       0.5126450596E+01      0.2997602683E+02      0.5996490701E+03      0.5091105207E-01

    ------------------------------------------------
       NWT REQUIRED            3 OUTER ITERATIONS 
       AND A TOTAL OF          7 INNER ITERATIONS.
    ------------------------------------------------

 NO OUTPUT CONTROL FOR STRESS PERIOD   33   TIME STEP    1

 WELLS WITH REDUCED PUMPING FOR STRESS PERIOD    33 TIME STEP     1
   LAY   ROW   COL         APPL.Q          ACT.Q        GW-HEAD       CELL-BOT
     1    77   213  -0.728135E+03  -0.722777E+03   0.159364E+03   0.148000E+03
     1    92    77  -0.728135E+03  -0.470957E+03  -0.785581E+02  -0.930000E+02
     1    94    73  -0.728135E+03  -0.698345E+03  -0.562768E+02  -0.740000E+02


 SOLVING FOR HEAD 
                                                   Max.-Head-Change                        Max.-Flux-Residual
  Residual-Control   Outer-Iter.   Inner-Iter.     Column Row Layer    Max.-Head-Change    Column Row Layer    Max.-Flux-Residual            L2-New               L2-Old           Solver-Max-Delh
          0                 1           3           263   79     1      -0.1054787000E+01     139  122    1       0.6480758442E+03      0.3883545522E+04      0.2997602683E+02     -0.1054787000E+01
          0                 2           2           263   79     1       0.9068893925E-01     139  122    1      -0.6481619740E+02      0.3895936273E+03      0.3883545522E+04      0.9068893925E-01

    ------------------------------------------------
       NWT REQUIRED            2 OUTER ITERATIONS 
       AND A TOTAL OF          5 INNER ITERATIONS.
    ------------------------------------------------

 NO OUTPUT CONTROL FOR STRESS PERIOD   33   TIME STEP    2

 WELLS WITH REDUCED PUMPING FOR STRESS PERIOD    33 TIME STEP     2
   LAY   ROW   COL         APPL.Q          ACT.Q        GW-HEAD       CELL-BOT
     1    77   213  -0.728135E+03  -0.724504E+03   0.159472E+03   0.148000E+03
     1    92    77  -0.728135E+03  -0.462247E+03  -0.787575E+02  -0.930000E+02
     1    94    73  -0.728135E+03  -0.696059E+03  -0.563738E+02  -0.740000E+02


 SOLVING FOR HEAD 
                                                   Max.-Head-Change                        Max.-Flux-Residual
  Residual-Control   Outer-Iter.   Inner-Iter.     Column Row Layer    Max.-Head-Change    Column Row Layer    Max.-Flux-Residual            L2-New               L2-Old           Solver-Max-Delh
          0                 1           3           263   79     1      -0.4002972042E+00     139  122    1       0.6279376458E+03      0.3596507668E+04      0.3895936273E+03     -0.4002972042E+00
          0                 2           2           457  456     1       0.5014468958E-01     139  122    1      -0.6280199932E+02      0.3596386518E+03      0.3596507668E+04      0.5014468958E-01

    ------------------------------------------------
       NWT REQUIRED            2 OUTER ITERATIONS 
       AND A TOTAL OF          5 INNER ITERATIONS.
    ------------------------------------------------

 NO OUTPUT CONTROL FOR STRESS PERIOD   33   TIME STEP    3

 WELLS WITH REDUCED PUMPING FOR STRESS PERIOD    33 TIME STEP     3
   LAY   ROW   COL         APPL.Q          ACT.Q        GW-HEAD       CELL-BOT
     1    77   213  -0.728135E+03  -0.725880E+03   0.159579E+03   0.148000E+03
     1    92    77  -0.728135E+03  -0.455707E+03  -0.789064E+02  -0.930000E+02
     1    94    73  -0.728135E+03  -0.693721E+03  -0.564699E+02  -0.740000E+02


 SOLVING FOR HEAD 
                                                   Max.-Head-Change                        Max.-Flux-Residual
  Residual-Control   Outer-Iter.   Inner-Iter.     Column Row Layer    Max.-Head-Change    Column Row Layer    Max.-Flux-Residual            L2-New               L2-Old           Solver-Max-Delh
          0                 1           3           197   82     1       0.2499250918E+00     197   82    1       0.6107953633E+03      0.3459714552E+04      0.3596386518E+03      0.2499250918E+00
          0                 2           2           457  456     1       0.4975258028E-01     197   82    1      -0.6108604936E+02      0.3459707907E+03      0.3459714552E+04      0.4975258028E-01

    ------------------------------------------------
       NWT REQUIRED            2 OUTER ITERATIONS 
       AND A TOTAL OF          5 INNER ITERATIONS.
    ------------------------------------------------

 NO OUTPUT CONTROL FOR STRESS PERIOD   33   TIME STEP    4

 WELLS WITH REDUCED PUMPING FOR STRESS PERIOD    33 TIME STEP     4
   LAY   ROW   COL         APPL.Q          ACT.Q        GW-HEAD       CELL-BOT
     1    77   213  -0.728135E+03  -0.726921E+03   0.159683E+03   0.148000E+03
     1    92    77  -0.728135E+03  -0.450789E+03  -0.790180E+02  -0.930000E+02
     1    94    73  -0.728135E+03  -0.691333E+03  -0.565651E+02  -0.740000E+02


 SOLVING FOR HEAD 
                                                   Max.-Head-Change                        Max.-Flux-Residual
  Residual-Control   Outer-Iter.   Inner-Iter.     Column Row Layer    Max.-Head-Change    Column Row Layer    Max.-Flux-Residual            L2-New               L2-Old           Solver-Max-Delh
          0                 1           3           197   82     1       0.2453636596E+00     197   82    1       0.5996355318E+03      0.3369207085E+04      0.3459707907E+03      0.2453636596E+00
          0                 2           2           457  456     1       0.4935412869E-01     197   82    1      -0.5996987994E+02      0.3369180586E+03      0.3369207085E+04      0.4935412869E-01

    ------------------------------------------------
       NWT REQUIRED            2 OUTER ITERATIONS 
       AND A TOTAL OF          5 INNER ITERATIONS.
    ------------------------------------------------

 NO OUTPUT CONTROL FOR STRESS PERIOD   33   TIME STEP    5

 WELLS WITH REDUCED PUMPING FOR STRESS PERIOD    33 TIME STEP     5
   LAY   ROW   COL         APPL.Q          ACT.Q        GW-HEAD       CELL-BOT
     1    77   213  -0.728135E+03  -0.727636E+03   0.159785E+03   0.148000E+03
     1    92    77  -0.728135E+03  -0.447080E+03  -0.791019E+02  -0.930000E+02
     1    94    73  -0.728135E+03  -0.688900E+03  -0.566593E+02  -0.740000E+02


 SOLVING FOR HEAD 
                                                   Max.-Head-Change                        Max.-Flux-Residual
  Residual-Control   Outer-Iter.   Inner-Iter.     Column Row Layer    Max.-Head-Change    Column Row Layer    Max.-Flux-Residual            L2-New               L2-Old           Solver-Max-Delh
          0                 1           3           197   82     1       0.2408937127E+00     197   82    1       0.5886982069E+03      0.3299564422E+04      0.3369180586E+03      0.2408937127E+00
          0                 2           2            52   88     1      -0.5256678510E-01     197   82    1      -0.5887596948E+02      0.3313539990E+03      0.3299564422E+04     -0.5256678510E-01

    ------------------------------------------------
       NWT REQUIRED            2 OUTER ITERATIONS 
       AND A TOTAL OF          5 INNER ITERATIONS.
    ------------------------------------------------

 NO OUTPUT CONTROL FOR STRESS PERIOD   33   TIME STEP    6

 WELLS WITH REDUCED PUMPING FOR STRESS PERIOD    33 TIME STEP     6
   LAY   ROW   COL         APPL.Q          ACT.Q        GW-HEAD       CELL-BOT
     1    77   213  -0.728135E+03  -0.728036E+03   0.159886E+03   0.148000E+03
     1    92    77  -0.728135E+03  -0.444267E+03  -0.791654E+02  -0.930000E+02
     1    94    73  -0.728135E+03  -0.686426E+03  -0.567526E+02  -0.740000E+02


 SOLVING FOR HEAD 
                                                   Max.-Head-Change                        Max.-Flux-Residual
  Residual-Control   Outer-Iter.   Inner-Iter.     Column Row Layer    Max.-Head-Change    Column Row Layer    Max.-Flux-Residual            L2-New               L2-Old           Solver-Max-Delh
          0                 1           3           197   82     1       0.2365135591E+00     197   82    1       0.5779800835E+03      0.3241445169E+04      0.3313539990E+03      0.2365135591E+00
          0                 2           2           457  456     1       0.4853916416E-01     197   82    1      -0.5780398550E+02      0.3241533891E+03      0.3241445169E+04      0.4853916416E-01

    ------------------------------------------------
       NWT REQUIRED            2 OUTER ITERATIONS 
       AND A TOTAL OF          5 INNER ITERATIONS.
    ------------------------------------------------

 NO OUTPUT CONTROL FOR STRESS PERIOD   33   TIME STEP    7

 WELLS WITH REDUCED PUMPING FOR STRESS PERIOD    33 TIME STEP     7
   LAY   ROW   COL         APPL.Q          ACT.Q        GW-HEAD       CELL-BOT
     1    92    77  -0.728135E+03  -0.442118E+03  -0.792139E+02  -0.930000E+02
     1    94    73  -0.728135E+03  -0.683912E+03  -0.568448E+02  -0.740000E+02


 SOLVING FOR HEAD 
                                                   Max.-Head-Change                        Max.-Flux-Residual
  Residual-Control   Outer-Iter.   Inner-Iter.     Column Row Layer    Max.-Head-Change    Column Row Layer    Max.-Flux-Residual            L2-New               L2-Old           Solver-Max-Delh
          0                 1           3           197   82     1       0.2322213173E+00     197   82    1       0.5674768863E+03      0.3190671143E+04      0.3241533891E+03      0.2322213173E+00
          0                 2           2           457  456     1       0.4812312855E-01     197   82    1      -0.5675349960E+02      0.3191729510E+03      0.3190671143E+04      0.4812312855E-01

    ------------------------------------------------
       NWT REQUIRED            2 OUTER ITERATIONS 
       AND A TOTAL OF          5 INNER ITERATIONS.
    ------------------------------------------------

 NO OUTPUT CONTROL FOR STRESS PERIOD   33   TIME STEP    8

 WELLS WITH REDUCED PUMPING FOR STRESS PERIOD    33 TIME STEP     8
   LAY   ROW   COL         APPL.Q          ACT.Q        GW-HEAD       CELL-BOT
     1    92    77  -0.728135E+03  -0.440460E+03  -0.792512E+02  -0.930000E+02
     1    94    73  -0.728135E+03  -0.681363E+03  -0.569361E+02  -0.740000E+02


 SOLVING FOR HEAD 
                                                   Max.-Head-Change                        Max.-Flux-Residual
  Residual-Control   Outer-Iter.   Inner-Iter.     Column Row Layer    Max.-Head-Change    Column Row Layer    Max.-Flux-Residual            L2-New               L2-Old           Solver-Max-Delh
          0                 1           3           197   82     1       0.2280152428E+00     197   82    1       0.5571844922E+03      0.3145053168E+04      0.3191729510E+03      0.2280152428E+00
          0                 2           2           457  456     1       0.4770170817E-01     197   82    1      -0.5572409903E+02      0.3145377005E+03      0.3145053168E+04      0.4770170817E-01

    ------------------------------------------------
       NWT REQUIRED            2 OUTER ITERATIONS 
       AND A TOTAL OF          5 INNER ITERATIONS.
    ------------------------------------------------

 NO OUTPUT CONTROL FOR STRESS PERIOD   33   TIME STEP    9

 WELLS WITH REDUCED PUMPING FOR STRESS PERIOD    33 TIME STEP     9
   LAY   ROW   COL         APPL.Q          ACT.Q        GW-HEAD       CELL-BOT
     1    92    77  -0.728135E+03  -0.439164E+03  -0.792804E+02  -0.930000E+02
     1    94    73  -0.728135E+03  -0.678782E+03  -0.570263E+02  -0.740000E+02


 SOLVING FOR HEAD 
                                                   Max.-Head-Change                        Max.-Flux-Residual
  Residual-Control   Outer-Iter.   Inner-Iter.     Column Row Layer    Max.-Head-Change    Column Row Layer    Max.-Flux-Residual            L2-New               L2-Old           Solver-Max-Delh
          0                 1           3           197   82     1       0.2238934076E+00     197   82    1       0.5470982569E+03      0.3103330490E+04      0.3145377005E+03      0.2238934076E+00
          0                 2           2           457  456     1       0.4727513981E-01     197   82    1      -0.5471531905E+02      0.3103777478E+03      0.3103330490E+04      0.4727513981E-01

    ------------------------------------------------
       NWT REQUIRED            2 OUTER ITERATIONS 
       AND A TOTAL OF          5 INNER ITERATIONS.
    ------------------------------------------------

 OUTPUT CONTROL FOR STRESS PERIOD   33   TIME STEP   10
    SAVE HEAD FOR ALL LAYERS

 WELLS WITH REDUCED PUMPING FOR STRESS PERIOD    33 TIME STEP    10
   LAY   ROW   COL         APPL.Q          ACT.Q        GW-HEAD       CELL-BOT
     1    92    77  -0.728135E+03  -0.438136E+03  -0.793035E+02  -0.930000E+02
     1    94    73  -0.728135E+03  -0.676171E+03  -0.571155E+02  -0.740000E+02


 HEAD WILL BE SAVED ON UNIT   51 AT END OF TIME STEP   10, STRESS PERIOD   33
1
  VOLUMETRIC BUDGET FOR ENTIRE MODEL AT END OF TIME STEP   10, STRESS PERIOD  33
  ------------------------------------------------------------------------------

     CUMULATIVE VOLUMES      L**3       RATES FOR THIS TIME STEP      L**3/T
     ------------------                 ------------------------

           IN:                                      IN:
           ---                                      ---
             STORAGE =   378992064.0000               STORAGE =      126562.3281
       CONSTANT HEAD =    49984272.0000         CONSTANT HEAD =       51680.7930
               WELLS =           0.0000                 WELLS =           0.0000
              DRAINS =           0.0000                DRAINS =           0.0000
                  ET =           0.0000                    ET =           0.0000
            RECHARGE =   186428656.0000              RECHARGE =      205532.2656

            TOTAL IN =   615404992.0000              TOTAL IN =      383775.3750

          OUT:                                     OUT:
          ----                                     ----
             STORAGE =   140278816.0000               STORAGE =       55268.2227
       CONSTANT HEAD =           0.0000         CONSTANT HEAD =           0.0000
               WELLS =   316111072.0000                 WELLS =      141732.5938
              DRAINS =   110037120.0000                DRAINS =      136450.5156
                  ET =    48254796.0000                    ET =       49970.7891
            RECHARGE =       81860.0000              RECHARGE =           0.0000

           TOTAL OUT =   614763648.0000             TOTAL OUT =      383422.0938

            IN - OUT =      641344.0000              IN - OUT =         353.2812

 PERCENT DISCREPANCY =           0.10     PERCENT DISCREPANCY =           0.09






         TIME SUMMARY AT END OF TIME STEP   10 IN STRESS PERIOD   33
                    SECONDS     MINUTES      HOURS       DAYS        YEARS
                    -----------------------------------------------------------
   TIME STEP LENGTH 2.62656E+05  4377.6      72.960      3.0400     8.32307E-03
 STRESS PERIOD TIME 2.62656E+06  43776.      729.60      30.400     8.32307E-02
         TOTAL TIME 8.66762E+07 1.44460E+06  24077.      1003.2      2.7466    
1
1
                            STRESS PERIOD NO.   34, LENGTH =   30.40000    
                            -----------------------------------------------

                              NUMBER OF TIME STEPS =    10

                               MULTIPLIER FOR DELT =     1.000

                            INITIAL TIME STEP SIZE =   3.040000    

 WELL NO.  LAYER   ROW   COL   STRESS RATE         
 --------------------------------------------------
      1      1     69    225      -2851.    
      2      1     71    224       0.000    
      3      1     74    220       0.000    
      4      1     73    220       0.000    
      5      1     71    223       0.000    
      6      1     71    223       0.000    
      7      1     72    223       0.000    
      8      1     92    173       0.000    
      9      1     94    174       0.000    
     10      1     93    175       0.000    
     11      1    203    328       0.000    
     12      1    438    460      -2655.    
     13      1    436    461      -2655.    
     14      1    410    454      -2655.    
     15      1    433    460      -2655.    
     16      1    431    462      -2655.    
     17      1    417    459      -2655.    
     18      1    418    458      -2655.    
     19      1    414    455      -2655.    
     20      1    443    464      -2655.    
     21      1    379    425      -2655.    
     22      1    362    405      -2655.    
     23      1    361    405      -2655.    
     24      1    362    406      -2655.    
     25      1    363    408      -2655.    
     26      1    364    410      -2655.    
     27      1    369    418      -2655.    
     28      1    367    417      -2655.    
     29      1    365    415      -2655.    
     30      1    402    447      -2655.    
     31      1    400    446      -2655.    
     32      1    392    444      -2655.    
     33      1    391    441      -2655.    
     34      1    403    448      -2655.    
     35      1    405    447      -2655.    
     36      1    362    410      -2655.    
     37      1    362    411      -2655.    
     38      1    363    412      -2655.    
     39      1    375    421      -2655.    
     40      1    383    430      -2655.    
     41      1    397    445      -2655.    
     42      1    360    403      -2655.    
     43      1    350    401      -2655.    
     44      1    346    393      -3354.    
     45      1    333    387      -3354.    
     46      1    328    384      -3354.    
     47      1    326    383      -3354.    
     48      1    323    378      -3354.    
     49      1    321    378      -3354.    
     50      1    322    376      -3354.    
     51      1    316    374      -3354.    
     52      1    311    371      -3354.    
     53      1    307    369      -3354.    
     54      1    305    368      -3354.    
     55      1    303    368      -3354.    
     56      1    300    369      -3354.    
     57      1    293    364      -3354.    
     58      1    292    362      -3354.    
     59      1    278    350      -3354.    
     60      1    274    351      -3354.    
     61      1    273    350      -3354.    
     62      1    271    350      -3354.    
     63      1    267    348      -3354.    
     64      1    263    348      -3354.    
     65      1    263    348      -3354.    
     66      1    248    347      -3354.    
     67      1    243    342      -3354.    
     68      1    242    339      -3354.    
     69      1    238    341      -3354.    
     70      1    233    340      -3354.    
     71      1    232    340      -3354.    
     72      1    229    341      -3354.    
     73      1    227    341      -3354.    
     74      1    219    342      -3354.    
     75      1    219    336      -3354.    
     76      1    199    329      -3354.    
     77      1    191    332      -4669.    
     78      1    190    332      -4669.    
     79      1    130    310      -4669.    
     80      1    123    305      -4669.    
     81      1    104    289      -4669.    
     82      1     96    287      -4290.    
     83      1     95    284      -4290.    
     84      1     95    280      -4290.    
     85      1     93    276      -4290.    
     86      1     94    275      -4290.    
     87      1     90    277      -4290.    
     88      1     90    273      -4290.    
     89      1     86    271      -4290.    
     90      1     85    270      -4290.    
     91      1     84    265      -4290.    
     92      1     85    265      -4290.    
     93      1     84    264      -4290.    
     94      1     79    263      -4290.    
     95      1     79    263      -4290.    
     96      1     76    262      -4290.    
     97      1     73    257      -4290.    
     98      1     74    255      -4290.    
     99      1     71    255      -4290.    
    100      1     66    253      -4290.    
    101      1     68    252      -4290.    
    102      1     69    250      -4290.    
    103      1     65    248      -4290.    
    104      1     68    248      -4290.    
    105      1     69    247      -4290.    
    106      1     73    247      -4290.    
    107      1     64    246      -4290.    
    108      1     69    245      -4290.    
    109      1     72    245      -4290.    
    110      1     69    241      -4290.    
    111      1     73    238      -4290.    
    112      1     70    238      -4290.    
    113      1     76    263      -4290.    
    114      1     66    232      -2310.    
    115      1     69    229      -2310.    
    116      1     71    228      -2310.    
    117      1     69    227      -2310.    
    118      1     72    219      -2310.    
    119      1     72    218      -2310.    
    120      1     72    218      -2310.    
    121      1     73    217      -2310.    
    122      1     77    219      -2310.    
    123      1     78    219      -2310.    
    124      1     83    213      -2310.    
    125      1     77    213      -2310.    
    126      1     81    211      -2310.    
    127      1     81    210      -2310.    
    128      1     81    210      -2310.    
    129      1     82    208      -2310.    
    130      1     80    205      -2310.    
    131      1     86    202      -2310.    
    132      1     84    200      -2310.    
    133      1     89    200      -2310.    
    134      1     89    199      -2310.    
    135      1     88    199      -2310.    
    136      1     86    199      -2310.    
    137      1     85    199      -2310.    
    138      1     82    197      -2310.    
    139      1     86    197      -2310.    
    140      1     88    198      -2310.    
    141      1     90    192      -2310.    
    142      1     89    191      -2310.    
    143      1     84    192      -2310.    
    144      1     91    189      -2310.    
    145      1     92    185      -2310.    
    146      1     87    183      -2310.    
    147      1     92    182      -2310.    
    148      1     90    182      -2310.    
    149      1     88    179      -2310.    
    150      1     89    176      -2310.    
    151      1     92    172      -2310.    
    152      1     93    164      -2310.    
    153      1     94    162      -2310.    
    154      1    103    156      -2310.    
    155      1    103    156      -2310.    
    156      1     96    154      -2310.    
    157      1     97    153      -2310.    
    158      1    122    139      -2310.    
    159      1     92     77      -2310.    
    160      1     94     77      -2310.    
    161      1     94     73      -2310.    
    162      1     97    152      -2310.    
    163      1    118    337      -666.7    
    164      1    133    319      -2678.    
    165      1    131    320      -3951.    
    166      1    133    321      -2956.    
    167      1    161    329      -2141.    
    168      1    178    330      -551.0    
    169      1    163    330      -1122.    
    170      1    131    320      -2473.    
    171      1    129    315      -3937.    
    172      1    162    329      -1959.    
    173      1    131    311      -826.1    
    174      1    221    340      -1994.    
    175      1    220    340      -1034.    
    176      1    221    340      -667.7    
    177      1    137    322      -2082.    
    178      1    137    321      -1407.    
    179      1    185    329      -2012.    
    180      1    183    329      -1473.    
    181      1    175    329      -585.3    
    182      1     79    243      -1490.    
    183      1     77    245      -2414.    
    184      1    199    329      -1617.    
    185      1    198    330      -2514.    
    186      1    140    328      -972.1    
    187      1    143    327      -863.6    
    188      1    139    327      -1331.    

    188 WELLS

 REUSING NON-PARAMETER DRAINS FROM LAST STRESS PERIOD

   1061 DRAINS

 REUSING SURF FROM LAST STRESS PERIOD

 REUSING EVTR FROM LAST STRESS PERIOD

 REUSING EXDP FROM LAST STRESS PERIOD



                           RECHARGE
 READING ON UNIT   19 WITH FORMAT: (510E15.6)          

 SOLVING FOR HEAD 
                                                   Max.-Head-Change                        Max.-Flux-Residual
  Residual-Control   Outer-Iter.   Inner-Iter.     Column Row Layer    Max.-Head-Change    Column Row Layer    Max.-Flux-Residual            L2-New               L2-Old           Solver-Max-Delh
          0                 1           3           263   79     1      -0.1819902049E+02     263   79    1      -0.6466324096E+04      0.3155996149E+05      0.3103777478E+03     -0.1819902049E+02
          0                 2           2           263   79     1       0.1396484436E+01     310  130    1       0.5874635443E+03      0.3129280489E+04      0.3155996149E+05      0.1396484436E+01
          0                 3           2           263   79     1       0.6832240096E-01     310  130    1       0.2934792763E+02      0.1564072301E+03      0.3129280489E+04      0.6832240096E-01

    ------------------------------------------------
       NWT REQUIRED            3 OUTER ITERATIONS 
       AND A TOTAL OF          7 INNER ITERATIONS.
    ------------------------------------------------

 NO OUTPUT CONTROL FOR STRESS PERIOD   34   TIME STEP    1

 WELLS WITH REDUCED PUMPING FOR STRESS PERIOD    34 TIME STEP     1
   LAY   ROW   COL         APPL.Q          ACT.Q        GW-HEAD       CELL-BOT
     1    77   213  -0.230952E+04  -0.230789E+04   0.159782E+03   0.148000E+03
     1    92    77  -0.230952E+04  -0.911842E+03  -0.826498E+02  -0.930000E+02
     1    94    73  -0.230952E+04  -0.208288E+04  -0.577296E+02  -0.740000E+02


 SOLVING FOR HEAD 
                                                   Max.-Head-Change                        Max.-Flux-Residual
  Residual-Control   Outer-Iter.   Inner-Iter.     Column Row Layer    Max.-Head-Change    Column Row Layer    Max.-Flux-Residual            L2-New               L2-Old           Solver-Max-Delh
          0                 1           3           263   79     1      -0.7449123584E+01     332  190    1      -0.2636313537E+04      0.1593070170E+05      0.1564072301E+03     -0.7449123584E+01
          0                 2           3           263   79     1       0.6001547485E+00     332  190    1       0.2587273261E+03      0.1586785839E+04      0.1593070170E+05      0.6001547485E+00
          0                 3           2           457  456     1       0.4562625383E-01     332  190    1       0.1290084810E+02      0.7961102586E+02      0.1586785839E+04      0.4562625383E-01

    ------------------------------------------------
       NWT REQUIRED            3 OUTER ITERATIONS 
       AND A TOTAL OF          8 INNER ITERATIONS.
    ------------------------------------------------

 NO OUTPUT CONTROL FOR STRESS PERIOD   34   TIME STEP    2

 WELLS WITH REDUCED PUMPING FOR STRESS PERIOD    34 TIME STEP     2
   LAY   ROW   COL         APPL.Q          ACT.Q        GW-HEAD       CELL-BOT
     1    77   213  -0.230952E+04  -0.228862E+04   0.159297E+03   0.148000E+03
     1    92    77  -0.230952E+04  -0.688311E+03  -0.842785E+02  -0.930000E+02
     1    94    73  -0.230952E+04  -0.201628E+04  -0.583178E+02  -0.740000E+02


 SOLVING FOR HEAD 
                                                   Max.-Head-Change                        Max.-Flux-Residual
  Residual-Control   Outer-Iter.   Inner-Iter.     Column Row Layer    Max.-Head-Change    Column Row Layer    Max.-Flux-Residual            L2-New               L2-Old           Solver-Max-Delh
          0                 1           3           263   79     1      -0.3403228606E+01     374  316    1      -0.2166018906E+04      0.1286089135E+05      0.7961102586E+02     -0.3403228606E+01
          0                 2           2           263   79     1       0.2826299509E+00     374  316    1       0.2164177626E+03      0.1285214187E+04      0.1286089135E+05      0.2826299509E+00
          0                 3           2           457  456     1       0.4480972711E-01     374  316    1       0.1081951700E+02      0.6425046810E+02      0.1285214187E+04      0.4480972711E-01

    ------------------------------------------------
       NWT REQUIRED            3 OUTER ITERATIONS 
       AND A TOTAL OF          7 INNER ITERATIONS.
    ------------------------------------------------

 NO OUTPUT CONTROL FOR STRESS PERIOD   34   TIME STEP    3

 WELLS WITH REDUCED PUMPING FOR STRESS PERIOD    34 TIME STEP     3
   LAY   ROW   COL         APPL.Q          ACT.Q        GW-HEAD       CELL-BOT
     1    77   213  -0.230952E+04  -0.225079E+04   0.158829E+03   0.148000E+03
     1    92    77  -0.230952E+04  -0.582619E+03  -0.850924E+02  -0.930000E+02
     1    94    73  -0.230952E+04  -0.194665E+04  -0.588791E+02  -0.740000E+02


 SOLVING FOR HEAD 
                                                   Max.-Head-Change                        Max.-Flux-Residual
  Residual-Control   Outer-Iter.   Inner-Iter.     Column Row Layer    Max.-Head-Change    Column Row Layer    Max.-Flux-Residual            L2-New               L2-Old           Solver-Max-Delh
          0                 1           3           263   79     1      -0.1782612666E+01      77   94    1      -0.1954247821E+04      0.1143301215E+05      0.6425046810E+02     -0.1782612666E+01
          0                 2           2           263   79     1       0.1505623027E+00      77   94    1       0.1953371663E+03      0.1146412441E+04      0.1143301215E+05      0.1505623027E+00
          0                 3           2           457  453     1       0.4479639736E-01      77   94    1       0.9766211416E+01      0.5732215065E+02      0.1146412441E+04      0.4479639736E-01

    ------------------------------------------------
       NWT REQUIRED            3 OUTER ITERATIONS 
       AND A TOTAL OF          7 INNER ITERATIONS.
    ------------------------------------------------

 NO OUTPUT CONTROL FOR STRESS PERIOD   34   TIME STEP    4

 WELLS WITH REDUCED PUMPING FOR STRESS PERIOD    34 TIME STEP     4
   LAY   ROW   COL         APPL.Q          ACT.Q        GW-HEAD       CELL-BOT
     1    77   213  -0.230952E+04  -0.219866E+04   0.158382E+03   0.148000E+03
     1    92    77  -0.230952E+04  -0.530856E+03  -0.855066E+02  -0.930000E+02
     1    94    73  -0.230952E+04  -0.187547E+04  -0.594127E+02  -0.740000E+02


 SOLVING FOR HEAD 
                                                   Max.-Head-Change                        Max.-Flux-Residual
  Residual-Control   Outer-Iter.   Inner-Iter.     Column Row Layer    Max.-Head-Change    Column Row Layer    Max.-Flux-Residual            L2-New               L2-Old           Solver-Max-Delh
          0                 1           3           263   78     1      -0.1101710896E+01      77   94    1      -0.1952820112E+04      0.1058360488E+05      0.5732215065E+02     -0.1101710896E+01
          0                 2           2           263   78     1       0.9399851893E-01      77   94    1       0.1951945144E+03      0.1059136782E+04      0.1058360488E+05      0.9399851893E-01

    ------------------------------------------------
       NWT REQUIRED            2 OUTER ITERATIONS 
       AND A TOTAL OF          5 INNER ITERATIONS.
    ------------------------------------------------

 NO OUTPUT CONTROL FOR STRESS PERIOD   34   TIME STEP    5

 WELLS WITH REDUCED PUMPING FOR STRESS PERIOD    34 TIME STEP     5
   LAY   ROW   COL         APPL.Q          ACT.Q        GW-HEAD       CELL-BOT
     1    77   213  -0.230952E+04  -0.213611E+04   0.157958E+03   0.148000E+03
     1    92    77  -0.230952E+04  -0.504709E+03  -0.857206E+02  -0.930000E+02
     1    94    73  -0.230952E+04  -0.180363E+04  -0.599212E+02  -0.740000E+02


 SOLVING FOR HEAD 
                                                   Max.-Head-Change                        Max.-Flux-Residual
  Residual-Control   Outer-Iter.   Inner-Iter.     Column Row Layer    Max.-Head-Change    Column Row Layer    Max.-Flux-Residual            L2-New               L2-Old           Solver-Max-Delh
          0                 1           3           264   78     1      -0.9153700619E+00      77   94    1      -0.1951387580E+04      0.1000516256E+05      0.5295975263E+02     -0.9153700619E+00
          0                 2           2           264   78     1       0.7788453327E-01      77   94    1       0.1950513810E+03      0.1000907106E+04      0.1000516256E+05      0.7788453327E-01

    ------------------------------------------------
       NWT REQUIRED            2 OUTER ITERATIONS 
       AND A TOTAL OF          5 INNER ITERATIONS.
    ------------------------------------------------

 NO OUTPUT CONTROL FOR STRESS PERIOD   34   TIME STEP    6

 WELLS WITH REDUCED PUMPING FOR STRESS PERIOD    34 TIME STEP     6
   LAY   ROW   COL         APPL.Q          ACT.Q        GW-HEAD       CELL-BOT
     1    77   213  -0.230952E+04  -0.206724E+04   0.157563E+03   0.148000E+03
     1    92    77  -0.230952E+04  -0.491399E+03  -0.858309E+02  -0.930000E+02
     1    94    73  -0.230952E+04  -0.173249E+04  -0.604020E+02  -0.740000E+02


 SOLVING FOR HEAD 
                                                   Max.-Head-Change                        Max.-Flux-Residual
  Residual-Control   Outer-Iter.   Inner-Iter.     Column Row Layer    Max.-Head-Change    Column Row Layer    Max.-Flux-Residual            L2-New               L2-Old           Solver-Max-Delh
          0                 1           3            77   94     1      -0.8130417421E+00      77   94    1      -0.1949957055E+04      0.9580281826E+04      0.5004819394E+02     -0.8130417421E+00
          0                 2           2            77   94     1       0.7019152819E-01      77   94    1       0.1949084488E+03      0.9582963059E+03      0.9580281826E+04      0.7019152819E-01

    ------------------------------------------------
       NWT REQUIRED            2 OUTER ITERATIONS 
       AND A TOTAL OF          5 INNER ITERATIONS.
    ------------------------------------------------

 NO OUTPUT CONTROL FOR STRESS PERIOD   34   TIME STEP    7

 WELLS WITH REDUCED PUMPING FOR STRESS PERIOD    34 TIME STEP     7
   LAY   ROW   COL         APPL.Q          ACT.Q        GW-HEAD       CELL-BOT
     1    77   213  -0.230952E+04  -0.199529E+04   0.157196E+03   0.148000E+03
     1    92    77  -0.230952E+04  -0.484555E+03  -0.858880E+02  -0.930000E+02
     1    94    73  -0.230952E+04  -0.166284E+04  -0.608559E+02  -0.740000E+02


 SOLVING FOR HEAD 
                                                   Max.-Head-Change                        Max.-Flux-Residual
  Residual-Control   Outer-Iter.   Inner-Iter.     Column Row Layer    Max.-Head-Change    Column Row Layer    Max.-Flux-Residual            L2-New               L2-Old           Solver-Max-Delh
          0                 1           3            77   94     1      -0.8124765887E+00      77   94    1      -0.1948528478E+04      0.9250388615E+04      0.4791462311E+02     -0.8124765887E+00
          0                 2           2            77   94     1       0.7014275390E-01      77   94    1       0.1947657110E+03      0.9251675607E+03      0.9250388615E+04      0.7014275390E-01

    ------------------------------------------------
       NWT REQUIRED            2 OUTER ITERATIONS 
       AND A TOTAL OF          5 INNER ITERATIONS.
    ------------------------------------------------

 NO OUTPUT CONTROL FOR STRESS PERIOD   34   TIME STEP    8

 WELLS WITH REDUCED PUMPING FOR STRESS PERIOD    34 TIME STEP     8
   LAY   ROW   COL         APPL.Q          ACT.Q        GW-HEAD       CELL-BOT
     1    77   213  -0.230952E+04  -0.192281E+04   0.156858E+03   0.148000E+03
     1    92    77  -0.230952E+04  -0.481012E+03  -0.859177E+02  -0.930000E+02
     1    94    73  -0.230952E+04  -0.159526E+04  -0.612835E+02  -0.740000E+02


 SOLVING FOR HEAD 
                                                   Max.-Head-Change                        Max.-Flux-Residual
  Residual-Control   Outer-Iter.   Inner-Iter.     Column Row Layer    Max.-Head-Change    Column Row Layer    Max.-Flux-Residual            L2-New               L2-Old           Solver-Max-Delh
          0                 1           3            77   94     1      -0.8119121778E+00      77   94    1      -0.1947101836E+04      0.8984180421E+04      0.4628420707E+02     -0.8119121778E+00
          0                 2           2            77   94     1       0.7009404378E-01      77   94    1       0.1946231665E+03      0.8990583969E+03      0.8984180421E+04      0.7009404378E-01

    ------------------------------------------------
       NWT REQUIRED            2 OUTER ITERATIONS 
       AND A TOTAL OF          5 INNER ITERATIONS.
    ------------------------------------------------

 NO OUTPUT CONTROL FOR STRESS PERIOD   34   TIME STEP    9

 WELLS WITH REDUCED PUMPING FOR STRESS PERIOD    34 TIME STEP     9
   LAY   ROW   COL         APPL.Q          ACT.Q        GW-HEAD       CELL-BOT
     1    77   213  -0.230952E+04  -0.185172E+04   0.156548E+03   0.148000E+03
     1    92    77  -0.230952E+04  -0.479164E+03  -0.859332E+02  -0.930000E+02
     1    94    73  -0.230952E+04  -0.153019E+04  -0.616858E+02  -0.740000E+02


 SOLVING FOR HEAD 
                                                   Max.-Head-Change                        Max.-Flux-Residual
  Residual-Control   Outer-Iter.   Inner-Iter.     Column Row Layer    Max.-Head-Change    Column Row Layer    Max.-Flux-Residual            L2-New               L2-Old           Solver-Max-Delh
          0                 1           3            77   94     1      -0.8113485075E+00      77   94    1      -0.1945677121E+04      0.8763012728E+04      0.4495309518E+02     -0.8113485075E+00
          0                 2           2            77   94     1       0.7004539770E-01      77   94    1       0.1944808145E+03      0.8857659436E+03      0.8763012728E+04      0.7004539770E-01

    ------------------------------------------------
       NWT REQUIRED            2 OUTER ITERATIONS 
       AND A TOTAL OF          5 INNER ITERATIONS.
    ------------------------------------------------

 OUTPUT CONTROL FOR STRESS PERIOD   34   TIME STEP   10
    SAVE HEAD FOR ALL LAYERS

 WELLS WITH REDUCED PUMPING FOR STRESS PERIOD    34 TIME STEP    10
   LAY   ROW   COL         APPL.Q          ACT.Q        GW-HEAD       CELL-BOT
     1    77   213  -0.230952E+04  -0.178336E+04   0.156266E+03   0.148000E+03
     1    92    77  -0.230952E+04  -0.478189E+03  -0.859414E+02  -0.930000E+02
     1    94    73  -0.230952E+04  -0.146791E+04  -0.620640E+02  -0.740000E+02


 HEAD WILL BE SAVED ON UNIT   51 AT END OF TIME STEP   10, STRESS PERIOD   34
1
  VOLUMETRIC BUDGET FOR ENTIRE MODEL AT END OF TIME STEP   10, STRESS PERIOD  34
  ------------------------------------------------------------------------------

     CUMULATIVE VOLUMES      L**3       RATES FOR THIS TIME STEP      L**3/T
     ------------------                 ------------------------

           IN:                                      IN:
           ---                                      ---
             STORAGE =   391697728.0000               STORAGE =      406640.7188
       CONSTANT HEAD =    51555940.0000         CONSTANT HEAD =       51714.6680
               WELLS =           0.0000                 WELLS =           0.0000
              DRAINS =           0.0000                DRAINS =           0.0000
                  ET =           0.0000                    ET =           0.0000
            RECHARGE =   192040976.0000              RECHARGE =      184616.3281

            TOTAL IN =   635294656.0000              TOTAL IN =      642971.6875

          OUT:                                     OUT:
          ----                                     ----
             STORAGE =   140986544.0000               STORAGE =       18264.7383
       CONSTANT HEAD =           0.0000         CONSTANT HEAD =           0.0000
               WELLS =   329846752.0000                 WELLS =      451146.5625
              DRAINS =   113986248.0000                DRAINS =      125003.8750
                  ET =    49714892.0000                    ET =       46599.9453
            RECHARGE =       81860.0000              RECHARGE =           0.0000

           TOTAL OUT =   634616256.0000             TOTAL OUT =      641015.1250

            IN - OUT =      678400.0000              IN - OUT =        1956.5625

 PERCENT DISCREPANCY =           0.11     PERCENT DISCREPANCY =           0.30






         TIME SUMMARY AT END OF TIME STEP   10 IN STRESS PERIOD   34
                    SECONDS     MINUTES      HOURS       DAYS        YEARS
                    -----------------------------------------------------------
   TIME STEP LENGTH 2.62656E+05  4377.6      72.960      3.0400     8.32307E-03
 STRESS PERIOD TIME 2.62656E+06  43776.      729.60      30.400     8.32307E-02
         TOTAL TIME 8.93028E+07 1.48838E+06  24806.      1033.6      2.8298    
1
1
                            STRESS PERIOD NO.   35, LENGTH =   30.40000    
                            -----------------------------------------------

                              NUMBER OF TIME STEPS =    10

                               MULTIPLIER FOR DELT =     1.000

                            INITIAL TIME STEP SIZE =   3.040000    

 WELL NO.  LAYER   ROW   COL   STRESS RATE         
 --------------------------------------------------
      1      1     69    225      -2938.    
      2      1     71    224       0.000    
      3      1     74    220       0.000    
      4      1     73    220       0.000    
      5      1     71    223       0.000    
      6      1     71    223       0.000    
      7      1     72    223       0.000    
      8      1     92    173       0.000    
      9      1     94    174       0.000    
     10      1     93    175       0.000    
     11      1    203    328       0.000    
     12      1    438    460      -2485.    
     13      1    436    461      -2485.    
     14      1    410    454      -2485.    
     15      1    433    460      -2485.    
     16      1    431    462      -2485.    
     17      1    417    459      -2485.    
     18      1    418    458      -2485.    
     19      1    414    455      -2485.    
     20      1    443    464      -2485.    
     21      1    379    425      -2485.    
     22      1    362    405      -2485.    
     23      1    361    405      -2485.    
     24      1    362    406      -2485.    
     25      1    363    408      -2485.    
     26      1    364    410      -2485.    
     27      1    369    418      -2485.    
     28      1    367    417      -2485.    
     29      1    365    415      -2485.    
     30      1    402    447      -2485.    
     31      1    400    446      -2485.    
     32      1    392    444      -2485.    
     33      1    391    441      -2485.    
     34      1    403    448      -2485.    
     35      1    405    447      -2485.    
     36      1    362    410      -2485.    
     37      1    362    411      -2485.    
     38      1    363    412      -2485.    
     39      1    375    421      -2485.    
     40      1    383    430      -2485.    
     41      1    397    445      -2485.    
     42      1    360    403      -2485.    
     43      1    350    401      -2485.    
     44      1    346    393      -3374.    
     45      1    333    387      -3374.    
     46      1    328    384      -3374.    
     47      1    326    383      -3374.    
     48      1    323    378      -3374.    
     49      1    321    378      -3374.    
     50      1    322    376      -3374.    
     51      1    316    374      -3374.    
     52      1    311    371      -3374.    
     53      1    307    369      -3374.    
     54      1    305    368      -3374.    
     55      1    303    368      -3374.    
     56      1    300    369      -3374.    
     57      1    293    364      -3374.    
     58      1    292    362      -3374.    
     59      1    278    350      -3374.    
     60      1    274    351      -3374.    
     61      1    273    350      -3374.    
     62      1    271    350      -3374.    
     63      1    267    348      -3374.    
     64      1    263    348      -3374.    
     65      1    263    348      -3374.    
     66      1    248    347      -3374.    
     67      1    243    342      -3374.    
     68      1    242    339      -3374.    
     69      1    238    341      -3374.    
     70      1    233    340      -3374.    
     71      1    232    340      -3374.    
     72      1    229    341      -3374.    
     73      1    227    341      -3374.    
     74      1    219    342      -3374.    
     75      1    219    336      -3374.    
     76      1    199    329      -3374.    
     77      1    191    332      -4479.    
     78      1    190    332      -4479.    
     79      1    130    310      -4479.    
     80      1    123    305      -4479.    
     81      1    104    289      -4479.    
     82      1     96    287      -3788.    
     83      1     95    284      -3788.    
     84      1     95    280      -3788.    
     85      1     93    276      -3788.    
     86      1     94    275      -3788.    
     87      1     90    277      -3788.    
     88      1     90    273      -3788.    
     89      1     86    271      -3788.    
     90      1     85    270      -3788.    
     91      1     84    265      -3788.    
     92      1     85    265      -3788.    
     93      1     84    264      -3788.    
     94      1     79    263      -3788.    
     95      1     79    263      -3788.    
     96      1     76    262      -3788.    
     97      1     73    257      -3788.    
     98      1     74    255      -3788.    
     99      1     71    255      -3788.    
    100      1     66    253      -3788.    
    101      1     68    252      -3788.    
    102      1     69    250      -3788.    
    103      1     65    248      -3788.    
    104      1     68    248      -3788.    
    105      1     69    247      -3788.    
    106      1     73    247      -3788.    
    107      1     64    246      -3788.    
    108      1     69    245      -3788.    
    109      1     72    245      -3788.    
    110      1     69    241      -3788.    
    111      1     73    238      -3788.    
    112      1     70    238      -3788.    
    113      1     76    263      -3788.    
    114      1     66    232      -2343.    
    115      1     69    229      -2343.    
    116      1     71    228      -2343.    
    117      1     69    227      -2343.    
    118      1     72    219      -2343.    
    119      1     72    218      -2343.    
    120      1     72    218      -2343.    
    121      1     73    217      -2343.    
    122      1     77    219      -2343.    
    123      1     78    219      -2343.    
    124      1     83    213      -2343.    
    125      1     77    213      -2343.    
    126      1     81    211      -2343.    
    127      1     81    210      -2343.    
    128      1     81    210      -2343.    
    129      1     82    208      -2343.    
    130      1     80    205      -2343.    
    131      1     86    202      -2343.    
    132      1     84    200      -2343.    
    133      1     89    200      -2343.    
    134      1     89    199      -2343.    
    135      1     88    199      -2343.    
    136      1     86    199      -2343.    
    137      1     85    199      -2343.    
    138      1     82    197      -2343.    
    139      1     86    197      -2343.    
    140      1     88    198      -2343.    
    141      1     90    192      -2343.    
    142      1     89    191      -2343.    
    143      1     84    192      -2343.    
    144      1     91    189      -2343.    
    145      1     92    185      -2343.    
    146      1     87    183      -2343.    
    147      1     92    182      -2343.    
    148      1     90    182      -2343.    
    149      1     88    179      -2343.    
    150      1     89    176      -2343.    
    151      1     92    172      -2343.    
    152      1     93    164      -2343.    
    153      1     94    162      -2343.    
    154      1    103    156      -2343.    
    155      1    103    156      -2343.    
    156      1     96    154      -2343.    
    157      1     97    153      -2343.    
    158      1    122    139      -2343.    
    159      1     92     77      -2343.    
    160      1     94     77      -2343.    
    161      1     94     73      -2343.    
    162      1     97    152      -2343.    
    163      1    118    337      -666.7    
    164      1    133    319      -2678.    
    165      1    131    320      -3951.    
    166      1    133    321      -2956.    
    167      1    161    329      -2141.    
    168      1    178    330      -551.0    
    169      1    163    330      -1122.    
    170      1    131    320      -2473.    
    171      1    129    315      -3937.    
    172      1    162    329      -1959.    
    173      1    131    311      -826.1    
    174      1    221    340      -1994.    
    175      1    220    340      -1034.    
    176      1    221    340      -667.7    
    177      1    137    322      -2082.    
    178      1    137    321      -1407.    
    179      1    185    329      -2012.    
    180      1    183    329      -1473.    
    181      1    175    329      -585.3    
    182      1     79    243      -1490.    
    183      1     77    245      -2414.    
    184      1    199    329      -1617.    
    185      1    198    330      -2514.    
    186      1    140    328      -972.1    
    187      1    143    327      -863.6    
    188      1    139    327      -1331.    

    188 WELLS

 REUSING NON-PARAMETER DRAINS FROM LAST STRESS PERIOD

   1061 DRAINS

 REUSING SURF FROM LAST STRESS PERIOD

 REUSING EVTR FROM LAST STRESS PERIOD

 REUSING EXDP FROM LAST STRESS PERIOD



                           RECHARGE
 READING ON UNIT   19 WITH FORMAT: (510E15.6)          

 SOLVING FOR HEAD 
                                                   Max.-Head-Change                        Max.-Flux-Residual
  Residual-Control   Outer-Iter.   Inner-Iter.     Column Row Layer    Max.-Head-Change    Column Row Layer    Max.-Flux-Residual            L2-New               L2-Old           Solver-Max-Delh
          0                 1           3           263   79     1       0.2642462188E+01      77   94    1      -0.1977653856E+04      0.1223437726E+05      0.4629353232E+02      0.2642462188E+01
          0                 2           2           263   79     1      -0.2291016275E+00      77   94    1       0.1976756112E+03      0.1225854096E+04      0.1223437726E+05     -0.2291016275E+00
          0                 3           2           457  453     1       0.4808834390E-01      77   94    1       0.9883111933E+01      0.6125956957E+02      0.1225854096E+04      0.4808834390E-01

    ------------------------------------------------
       NWT REQUIRED            3 OUTER ITERATIONS 
       AND A TOTAL OF          7 INNER ITERATIONS.
    ------------------------------------------------

 NO OUTPUT CONTROL FOR STRESS PERIOD   35   TIME STEP    1

 WELLS WITH REDUCED PUMPING FOR STRESS PERIOD    35 TIME STEP     1
   LAY   ROW   COL         APPL.Q          ACT.Q        GW-HEAD       CELL-BOT
     1    77   213  -0.234339E+04  -0.174191E+04   0.156001E+03   0.148000E+03
     1    92    77  -0.234339E+04  -0.481598E+03  -0.859712E+02  -0.930000E+02
     1    94    73  -0.234339E+04  -0.142832E+04  -0.624248E+02  -0.740000E+02


 SOLVING FOR HEAD 
                                                   Max.-Head-Change                        Max.-Flux-Residual
  Residual-Control   Outer-Iter.   Inner-Iter.     Column Row Layer    Max.-Head-Change    Column Row Layer    Max.-Flux-Residual            L2-New               L2-Old           Solver-Max-Delh
          0                 1           3           263   79     1       0.9218802958E+00      77   94    1      -0.1976212866E+04      0.1094343713E+05      0.6125956957E+02      0.9218802958E+00
          0                 2           2           263   79     1      -0.7946685297E-01      77   94    1       0.1975316334E+03      0.1093121796E+04      0.1094343713E+05     -0.7946685297E-01

    ------------------------------------------------
       NWT REQUIRED            2 OUTER ITERATIONS 
       AND A TOTAL OF          5 INNER ITERATIONS.
    ------------------------------------------------

 NO OUTPUT CONTROL FOR STRESS PERIOD   35   TIME STEP    2

 WELLS WITH REDUCED PUMPING FOR STRESS PERIOD    35 TIME STEP     2
   LAY   ROW   COL         APPL.Q          ACT.Q        GW-HEAD       CELL-BOT
     1    77   213  -0.234339E+04  -0.167832E+04   0.155761E+03   0.148000E+03
     1    92    77  -0.234339E+04  -0.479712E+03  -0.859869E+02  -0.930000E+02
     1    94    73  -0.234339E+04  -0.137011E+04  -0.627648E+02  -0.740000E+02


 SOLVING FOR HEAD 
                                                   Max.-Head-Change                        Max.-Flux-Residual
  Residual-Control   Outer-Iter.   Inner-Iter.     Column Row Layer    Max.-Head-Change    Column Row Layer    Max.-Flux-Residual            L2-New               L2-Old           Solver-Max-Delh
          0                 1           3            77   94     1      -0.8235713328E+00      77   94    1      -0.1974767023E+04      0.1048588777E+05      0.5464724242E+02     -0.8235713328E+00
          0                 2           2            77   94     1       0.7110022454E-01      77   94    1       0.1973871713E+03      0.1053163331E+04      0.1048588777E+05      0.7110022454E-01

    ------------------------------------------------
       NWT REQUIRED            2 OUTER ITERATIONS 
       AND A TOTAL OF          5 INNER ITERATIONS.
    ------------------------------------------------

 NO OUTPUT CONTROL FOR STRESS PERIOD   35   TIME STEP    3

 WELLS WITH REDUCED PUMPING FOR STRESS PERIOD    35 TIME STEP     3
   LAY   ROW   COL         APPL.Q          ACT.Q        GW-HEAD       CELL-BOT
     1    77   213  -0.234339E+04  -0.161936E+04   0.155543E+03   0.148000E+03
     1    92    77  -0.234339E+04  -0.478724E+03  -0.859951E+02  -0.930000E+02
     1    94    73  -0.234339E+04  -0.131512E+04  -0.630836E+02  -0.740000E+02


 SOLVING FOR HEAD 
                                                   Max.-Head-Change                        Max.-Flux-Residual
  Residual-Control   Outer-Iter.   Inner-Iter.     Column Row Layer    Max.-Head-Change    Column Row Layer    Max.-Flux-Residual            L2-New               L2-Old           Solver-Max-Delh
          0                 1           3            77   94     1      -0.8230004579E+00      77   94    1      -0.1973323133E+04      0.1018346454E+05      0.5265330927E+02     -0.8230004579E+00
          0                 2           2            77   94     1       0.7105095544E-01      77   94    1       0.1972429046E+03      0.1017837178E+04      0.1018346454E+05      0.7105095544E-01

    ------------------------------------------------
       NWT REQUIRED            2 OUTER ITERATIONS 
       AND A TOTAL OF          5 INNER ITERATIONS.
    ------------------------------------------------

 NO OUTPUT CONTROL FOR STRESS PERIOD   35   TIME STEP    4

 WELLS WITH REDUCED PUMPING FOR STRESS PERIOD    35 TIME STEP     4
   LAY   ROW   COL         APPL.Q          ACT.Q        GW-HEAD       CELL-BOT
     1    77   213  -0.234339E+04  -0.156508E+04   0.155347E+03   0.148000E+03
     1    92    77  -0.234339E+04  -0.478197E+03  -0.859995E+02  -0.930000E+02
     1    94    73  -0.234339E+04  -0.126334E+04  -0.633823E+02  -0.740000E+02


 SOLVING FOR HEAD 
                                                   Max.-Head-Change                        Max.-Flux-Residual
  Residual-Control   Outer-Iter.   Inner-Iter.     Column Row Layer    Max.-Head-Change    Column Row Layer    Max.-Flux-Residual            L2-New               L2-Old           Solver-Max-Delh
          0                 1           3            77   94     1      -0.8224303328E+00      77   94    1      -0.1971881195E+04      0.9949449923E+04      0.5088865631E+02     -0.8224303328E+00
          0                 2           2            77   94     1       0.7100175170E-01      77   94    1       0.1970988331E+03      0.9945146513E+03      0.9949449923E+04      0.7100175170E-01

    ------------------------------------------------
       NWT REQUIRED            2 OUTER ITERATIONS 
       AND A TOTAL OF          5 INNER ITERATIONS.
    ------------------------------------------------

 NO OUTPUT CONTROL FOR STRESS PERIOD   35   TIME STEP    5

 WELLS WITH REDUCED PUMPING FOR STRESS PERIOD    35 TIME STEP     5
   LAY   ROW   COL         APPL.Q          ACT.Q        GW-HEAD       CELL-BOT
     1    77   213  -0.234339E+04  -0.151539E+04   0.155169E+03   0.148000E+03
     1    92    77  -0.234339E+04  -0.477906E+03  -0.860019E+02  -0.930000E+02
     1    94    73  -0.234339E+04  -0.121467E+04  -0.636622E+02  -0.740000E+02


 SOLVING FOR HEAD 
                                                   Max.-Head-Change                        Max.-Flux-Residual
  Residual-Control   Outer-Iter.   Inner-Iter.     Column Row Layer    Max.-Head-Change    Column Row Layer    Max.-Flux-Residual            L2-New               L2-Old           Solver-Max-Delh
          0                 1           3            77   94     1      -0.8218609685E+00      77   94    1      -0.1970441234E+04      0.9754111129E+04      0.4972318431E+02     -0.8218609685E+00
          0                 2           2            77   94     1       0.7095261344E-01      77   94    1       0.1969549593E+03      0.9750900506E+03      0.9754111129E+04      0.7095261344E-01

    ------------------------------------------------
       NWT REQUIRED            2 OUTER ITERATIONS 
       AND A TOTAL OF          5 INNER ITERATIONS.
    ------------------------------------------------

 NO OUTPUT CONTROL FOR STRESS PERIOD   35   TIME STEP    6

 WELLS WITH REDUCED PUMPING FOR STRESS PERIOD    35 TIME STEP     6
   LAY   ROW   COL         APPL.Q          ACT.Q        GW-HEAD       CELL-BOT
     1    77   213  -0.234339E+04  -0.147008E+04   0.155010E+03   0.148000E+03
     1    92    77  -0.234339E+04  -0.477737E+03  -0.860033E+02  -0.930000E+02
     1    94    73  -0.234339E+04  -0.116901E+04  -0.639244E+02  -0.740000E+02


 SOLVING FOR HEAD 
                                                   Max.-Head-Change                        Max.-Flux-Residual
  Residual-Control   Outer-Iter.   Inner-Iter.     Column Row Layer    Max.-Head-Change    Column Row Layer    Max.-Flux-Residual            L2-New               L2-Old           Solver-Max-Delh
          0                 1           3            77   94     1      -0.8212923632E+00      77   94    1      -0.1969003246E+04      0.9583660182E+04      0.4875231836E+02     -0.8212923632E+00
          0                 2           2            77   94     1       0.7090354264E-01      77   94    1       0.1968112824E+03      0.9581238190E+03      0.9583660182E+04      0.7090354264E-01

    ------------------------------------------------
       NWT REQUIRED            2 OUTER ITERATIONS 
       AND A TOTAL OF          5 INNER ITERATIONS.
    ------------------------------------------------

 NO OUTPUT CONTROL FOR STRESS PERIOD   35   TIME STEP    7

 WELLS WITH REDUCED PUMPING FOR STRESS PERIOD    35 TIME STEP     7
   LAY   ROW   COL         APPL.Q          ACT.Q        GW-HEAD       CELL-BOT
     1    77   213  -0.234339E+04  -0.142891E+04   0.154866E+03   0.148000E+03
     1    92    77  -0.234339E+04  -0.477629E+03  -0.860042E+02  -0.930000E+02
     1    94    73  -0.234339E+04  -0.112623E+04  -0.641700E+02  -0.740000E+02


 SOLVING FOR HEAD 
                                                   Max.-Head-Change                        Max.-Flux-Residual
  Residual-Control   Outer-Iter.   Inner-Iter.     Column Row Layer    Max.-Head-Change    Column Row Layer    Max.-Flux-Residual            L2-New               L2-Old           Solver-Max-Delh
          0                 1           3            77   94     1      -0.8207245159E+00      77   94    1      -0.1967567227E+04      0.9430750070E+04      0.4790423061E+02     -0.8207245159E+00
          0                 2           2            77   94     1       0.7085453607E-01      77   94    1       0.1966678025E+03      0.9428292622E+03      0.9430750070E+04      0.7085453607E-01

    ------------------------------------------------
       NWT REQUIRED            2 OUTER ITERATIONS 
       AND A TOTAL OF          5 INNER ITERATIONS.
    ------------------------------------------------

 NO OUTPUT CONTROL FOR STRESS PERIOD   35   TIME STEP    8

 WELLS WITH REDUCED PUMPING FOR STRESS PERIOD    35 TIME STEP     8
   LAY   ROW   COL         APPL.Q          ACT.Q        GW-HEAD       CELL-BOT
     1    77   213  -0.234339E+04  -0.139156E+04   0.154736E+03   0.148000E+03
     1    92    77  -0.234339E+04  -0.477552E+03  -0.860049E+02  -0.930000E+02
     1    94    73  -0.234339E+04  -0.108620E+04  -0.644002E+02  -0.740000E+02


 SOLVING FOR HEAD 
                                                   Max.-Head-Change                        Max.-Flux-Residual
  Residual-Control   Outer-Iter.   Inner-Iter.     Column Row Layer    Max.-Head-Change    Column Row Layer    Max.-Flux-Residual            L2-New               L2-Old           Solver-Max-Delh
          0                 1           3            77   94     1      -0.8201574254E+00      77   94    1      -0.1966133175E+04      0.9291577608E+04      0.4713967402E+02     -0.8201574254E+00
          0                 2           2            77   94     1       0.7080559488E-01      77   94    1       0.1965245190E+03      0.9298643365E+03      0.9291577608E+04      0.7080559488E-01

    ------------------------------------------------
       NWT REQUIRED            2 OUTER ITERATIONS 
       AND A TOTAL OF          5 INNER ITERATIONS.
    ------------------------------------------------

 NO OUTPUT CONTROL FOR STRESS PERIOD   35   TIME STEP    9

 WELLS WITH REDUCED PUMPING FOR STRESS PERIOD    35 TIME STEP     9
   LAY   ROW   COL         APPL.Q          ACT.Q        GW-HEAD       CELL-BOT
     1    77   213  -0.234339E+04  -0.135776E+04   0.154620E+03   0.148000E+03
     1    92    77  -0.234339E+04  -0.477490E+03  -0.860054E+02  -0.930000E+02
     1    94    73  -0.234339E+04  -0.104877E+04  -0.646159E+02  -0.740000E+02


 SOLVING FOR HEAD 
                                                   Max.-Head-Change                        Max.-Flux-Residual
  Residual-Control   Outer-Iter.   Inner-Iter.     Column Row Layer    Max.-Head-Change    Column Row Layer    Max.-Flux-Residual            L2-New               L2-Old           Solver-Max-Delh
          0                 1           3            77   94     1      -0.8195910905E+00      77   94    1      -0.1964701086E+04      0.9164564989E+04      0.4649152245E+02     -0.8195910905E+00
          0                 2           2            77   94     1       0.7075671900E-01      77   94    1       0.1963814315E+03      0.9266637284E+03      0.9164564989E+04      0.7075671900E-01

    ------------------------------------------------
       NWT REQUIRED            2 OUTER ITERATIONS 
       AND A TOTAL OF          5 INNER ITERATIONS.
    ------------------------------------------------

 OUTPUT CONTROL FOR STRESS PERIOD   35   TIME STEP   10
    SAVE HEAD FOR ALL LAYERS

 WELLS WITH REDUCED PUMPING FOR STRESS PERIOD    35 TIME STEP    10
   LAY   ROW   COL         APPL.Q          ACT.Q        GW-HEAD       CELL-BOT
     1    77   213  -0.234339E+04  -0.132719E+04   0.154514E+03   0.148000E+03
     1    92    77  -0.234339E+04  -0.477436E+03  -0.860058E+02  -0.930000E+02
     1    94    73  -0.234339E+04  -0.101378E+04  -0.648181E+02  -0.740000E+02


 HEAD WILL BE SAVED ON UNIT   51 AT END OF TIME STEP   10, STRESS PERIOD   35
1
  VOLUMETRIC BUDGET FOR ENTIRE MODEL AT END OF TIME STEP   10, STRESS PERIOD  35
  ------------------------------------------------------------------------------

     CUMULATIVE VOLUMES      L**3       RATES FOR THIS TIME STEP      L**3/T
     ------------------                 ------------------------

           IN:                                      IN:
           ---                                      ---
             STORAGE =   404463328.0000               STORAGE =      413528.3125
       CONSTANT HEAD =    53128600.0000         CONSTANT HEAD =       51746.2070
               WELLS =           0.0000                 WELLS =           0.0000
              DRAINS =           0.0000                DRAINS =           0.0000
                  ET =           0.0000                    ET =           0.0000
            RECHARGE =   196445936.0000              RECHARGE =      144898.5781

            TOTAL IN =   654037888.0000              TOTAL IN =      610173.1250

          OUT:                                     OUT:
          ----                                     ----
             STORAGE =   141488416.0000               STORAGE =       15189.9980
       CONSTANT HEAD =           0.0000         CONSTANT HEAD =           0.0000
               WELLS =   342999040.0000                 WELLS =      432267.5312
              DRAINS =   117646976.0000                DRAINS =      116739.5625
                  ET =    51087804.0000                    ET =       43982.9844
            RECHARGE =       81860.0000              RECHARGE =           0.0000

           TOTAL OUT =   653304064.0000             TOTAL OUT =      608180.1250

            IN - OUT =      733824.0000              IN - OUT =        1993.0000

 PERCENT DISCREPANCY =           0.11     PERCENT DISCREPANCY =           0.33






         TIME SUMMARY AT END OF TIME STEP   10 IN STRESS PERIOD   35
                    SECONDS     MINUTES      HOURS       DAYS        YEARS
                    -----------------------------------------------------------
   TIME STEP LENGTH 2.62656E+05  4377.6      72.960      3.0400     8.32307E-03
 STRESS PERIOD TIME 2.62656E+06  43776.      729.60      30.400     8.32307E-02
         TOTAL TIME 9.19294E+07 1.53216E+06  25536.      1064.0      2.9131    
1
1
                            STRESS PERIOD NO.   36, LENGTH =   30.40000    
                            -----------------------------------------------

                              NUMBER OF TIME STEPS =    10

                               MULTIPLIER FOR DELT =     1.000

                            INITIAL TIME STEP SIZE =   3.040000    

 WELL NO.  LAYER   ROW   COL   STRESS RATE         
 --------------------------------------------------
      1      1     69    225      -3024.    
      2      1     71    224       0.000    
      3      1     74    220       0.000    
      4      1     73    220       0.000    
      5      1     71    223       0.000    
      6      1     71    223       0.000    
      7      1     72    223       0.000    
      8      1     92    173       0.000    
      9      1     94    174       0.000    
     10      1     93    175       0.000    
     11      1    203    328       0.000    
     12      1    438    460      -0.000    
     13      1    436    461      -0.000    
     14      1    410    454      -0.000    
     15      1    433    460      -0.000    
     16      1    431    462      -0.000    
     17      1    417    459      -0.000    
     18      1    418    458      -0.000    
     19      1    414    455      -0.000    
     20      1    443    464      -0.000    
     21      1    379    425      -0.000    
     22      1    362    405      -0.000    
     23      1    361    405      -0.000    
     24      1    362    406      -0.000    
     25      1    363    408      -0.000    
     26      1    364    410      -0.000    
     27      1    369    418      -0.000    
     28      1    367    417      -0.000    
     29      1    365    415      -0.000    
     30      1    402    447      -0.000    
     31      1    400    446      -0.000    
     32      1    392    444      -0.000    
     33      1    391    441      -0.000    
     34      1    403    448      -0.000    
     35      1    405    447      -0.000    
     36      1    362    410      -0.000    
     37      1    362    411      -0.000    
     38      1    363    412      -0.000    
     39      1    375    421      -0.000    
     40      1    383    430      -0.000    
     41      1    397    445      -0.000    
     42      1    360    403      -0.000    
     43      1    350    401      -0.000    
     44      1    346    393      -49.88    
     45      1    333    387      -49.88    
     46      1    328    384      -49.88    
     47      1    326    383      -49.88    
     48      1    323    378      -49.88    
     49      1    321    378      -49.88    
     50      1    322    376      -49.88    
     51      1    316    374      -49.88    
     52      1    311    371      -49.88    
     53      1    307    369      -49.88    
     54      1    305    368      -49.88    
     55      1    303    368      -49.88    
     56      1    300    369      -49.88    
     57      1    293    364      -49.88    
     58      1    292    362      -49.88    
     59      1    278    350      -49.88    
     60      1    274    351      -49.88    
     61      1    273    350      -49.88    
     62      1    271    350      -49.88    
     63      1    267    348      -49.88    
     64      1    263    348      -49.88    
     65      1    263    348      -49.88    
     66      1    248    347      -49.88    
     67      1    243    342      -49.88    
     68      1    242    339      -49.88    
     69      1    238    341      -49.88    
     70      1    233    340      -49.88    
     71      1    232    340      -49.88    
     72      1    229    341      -49.88    
     73      1    227    341      -49.88    
     74      1    219    342      -49.88    
     75      1    219    336      -49.88    
     76      1    199    329      -49.88    
     77      1    191    332      -0.000    
     78      1    190    332      -0.000    
     79      1    130    310      -0.000    
     80      1    123    305      -0.000    
     81      1    104    289      -0.000    
     82      1     96    287      -510.6    
     83      1     95    284      -510.6    
     84      1     95    280      -510.6    
     85      1     93    276      -510.6    
     86      1     94    275      -510.6    
     87      1     90    277      -510.6    
     88      1     90    273      -510.6    
     89      1     86    271      -510.6    
     90      1     85    270      -510.6    
     91      1     84    265      -510.6    
     92      1     85    265      -510.6    
     93      1     84    264      -510.6    
     94      1     79    263      -510.6    
     95      1     79    263      -510.6    
     96      1     76    262      -510.6    
     97      1     73    257      -510.6    
     98      1     74    255      -510.6    
     99      1     71    255      -510.6    
    100      1     66    253      -510.6    
    101      1     68    252      -510.6    
    102      1     69    250      -510.6    
    103      1     65    248      -510.6    
    104      1     68    248      -510.6    
    105      1     69    247      -510.6    
    106      1     73    247      -510.6    
    107      1     64    246      -510.6    
    108      1     69    245      -510.6    
    109      1     72    245      -510.6    
    110      1     69    241      -510.6    
    111      1     73    238      -510.6    
    112      1     70    238      -510.6    
    113      1     76    263      -510.6    
    114      1     66    232      -620.9    
    115      1     69    229      -620.9    
    116      1     71    228      -620.9    
    117      1     69    227      -620.9    
    118      1     72    219      -620.9    
    119      1     72    218      -620.9    
    120      1     72    218      -620.9    
    121      1     73    217      -620.9    
    122      1     77    219      -620.9    
    123      1     78    219      -620.9    
    124      1     83    213      -620.9    
    125      1     77    213      -620.9    
    126      1     81    211      -620.9    
    127      1     81    210      -620.9    
    128      1     81    210      -620.9    
    129      1     82    208      -620.9    
    130      1     80    205      -620.9    
    131      1     86    202      -620.9    
    132      1     84    200      -620.9    
    133      1     89    200      -620.9    
    134      1     89    199      -620.9    
    135      1     88    199      -620.9    
    136      1     86    199      -620.9    
    137      1     85    199      -620.9    
    138      1     82    197      -620.9    
    139      1     86    197      -620.9    
    140      1     88    198      -620.9    
    141      1     90    192      -620.9    
    142      1     89    191      -620.9    
    143      1     84    192      -620.9    
    144      1     91    189      -620.9    
    145      1     92    185      -620.9    
    146      1     87    183      -620.9    
    147      1     92    182      -620.9    
    148      1     90    182      -620.9    
    149      1     88    179      -620.9    
    150      1     89    176      -620.9    
    151      1     92    172      -620.9    
    152      1     93    164      -620.9    
    153      1     94    162      -620.9    
    154      1    103    156      -620.9    
    155      1    103    156      -620.9    
    156      1     96    154      -620.9    
    157      1     97    153      -620.9    
    158      1    122    139      -620.9    
    159      1     92     77      -620.9    
    160      1     94     77      -620.9    
    161      1     94     73      -620.9    
    162      1     97    152      -620.9    
    163      1    118    337      -666.7    
    164      1    133    319      -2678.    
    165      1    131    320      -3951.    
    166      1    133    321      -2956.    
    167      1    161    329      -2141.    
    168      1    178    330      -551.0    
    169      1    163    330      -1122.    
    170      1    131    320      -2473.    
    171      1    129    315      -3937.    
    172      1    162    329      -1959.    
    173      1    131    311      -826.1    
    174      1    221    340      -1994.    
    175      1    220    340      -1034.    
    176      1    221    340      -667.7    
    177      1    137    322      -2082.    
    178      1    137    321      -1407.    
    179      1    185    329      -2012.    
    180      1    183    329      -1473.    
    181      1    175    329      -585.3    
    182      1     79    243      -1490.    
    183      1     77    245      -2414.    
    184      1    199    329      -1617.    
    185      1    198    330      -2514.    
    186      1    140    328      -972.1    
    187      1    143    327      -863.6    
    188      1    139    327      -1331.    

    188 WELLS

 REUSING NON-PARAMETER DRAINS FROM LAST STRESS PERIOD

   1061 DRAINS

 REUSING SURF FROM LAST STRESS PERIOD

 REUSING EVTR FROM LAST STRESS PERIOD

 REUSING EXDP FROM LAST STRESS PERIOD



                           RECHARGE
 READING ON UNIT   19 WITH FORMAT: (510E15.6)          

 SOLVING FOR HEAD 
                                                   Max.-Head-Change                        Max.-Flux-Residual
  Residual-Control   Outer-Iter.   Inner-Iter.     Column Row Layer    Max.-Head-Change    Column Row Layer    Max.-Flux-Residual            L2-New               L2-Old           Solver-Max-Delh
          0                 1           3           263   79     1       0.1923547694E+02     348  263    1       0.6538675688E+04      0.3185133028E+05      0.4633114085E+02      0.1923547694E+02
          0                 2           2           263   79     1      -0.1842435574E+01     348  263    1      -0.7524233406E+03      0.3329052389E+04      0.3185133028E+05     -0.1842435574E+01
          0                 3           2           263   79     1      -0.9419769242E-01     263   79    1      -0.3816319764E+02      0.1676386146E+03      0.3329052389E+04     -0.9419769242E-01

    ------------------------------------------------
       NWT REQUIRED            3 OUTER ITERATIONS 
       AND A TOTAL OF          7 INNER ITERATIONS.
    ------------------------------------------------

 NO OUTPUT CONTROL FOR STRESS PERIOD   36   TIME STEP    1

 WELLS WITH REDUCED PUMPING FOR STRESS PERIOD    36 TIME STEP     1
   LAY   ROW   COL         APPL.Q          ACT.Q        GW-HEAD       CELL-BOT
     1    77   213  -0.620891E+03  -0.370680E+03   0.154762E+03   0.148000E+03
     1    92    77  -0.620891E+03  -0.192060E+03  -0.840828E+02  -0.930000E+02
     1    94    73  -0.620891E+03  -0.271883E+03  -0.647465E+02  -0.740000E+02


 SOLVING FOR HEAD 
                                                   Max.-Head-Change                        Max.-Flux-Residual
  Residual-Control   Outer-Iter.   Inner-Iter.     Column Row Layer    Max.-Head-Change    Column Row Layer    Max.-Flux-Residual            L2-New               L2-Old           Solver-Max-Delh
          0                 1           3           263   79     1       0.7717586128E+01     393  346    1       0.2693951604E+04      0.1393406362E+05      0.1676386146E+03      0.7717586128E+01
          0                 2           2           263   79     1      -0.7084657091E+00     263   79    1      -0.2722482816E+03      0.1403211605E+04      0.1393406362E+05     -0.7084657091E+00
          0                 3           2           457  453     1       0.5341104118E-01     263   79    1      -0.1379819014E+02      0.7056782419E+02      0.1403211605E+04      0.5341104118E-01

    ------------------------------------------------
       NWT REQUIRED            3 OUTER ITERATIONS 
       AND A TOTAL OF          7 INNER ITERATIONS.
    ------------------------------------------------

 NO OUTPUT CONTROL FOR STRESS PERIOD   36   TIME STEP    2

 WELLS WITH REDUCED PUMPING FOR STRESS PERIOD    36 TIME STEP     2
   LAY   ROW   COL         APPL.Q          ACT.Q        GW-HEAD       CELL-BOT
     1    77   213  -0.620891E+03  -0.388824E+03   0.155001E+03   0.148000E+03
     1    92    77  -0.620891E+03  -0.246626E+03  -0.826105E+02  -0.930000E+02
     1    94    73  -0.620891E+03  -0.275100E+03  -0.646764E+02  -0.740000E+02


 SOLVING FOR HEAD 
                                                   Max.-Head-Change                        Max.-Flux-Residual
  Residual-Control   Outer-Iter.   Inner-Iter.     Column Row Layer    Max.-Head-Change    Column Row Layer    Max.-Flux-Residual            L2-New               L2-Old           Solver-Max-Delh
          0                 1           3           263   79     1       0.3367310780E+01     393  346    1       0.2337127094E+04      0.1023070272E+05      0.7056782419E+02      0.3367310780E+01
          0                 2           2           263   79     1      -0.3073478052E+00     393  346    1      -0.2338600612E+03      0.1030028961E+04      0.1023070272E+05     -0.3073478052E+00
          0                 3           2           457  453     1       0.5374494342E-01     393  346    1      -0.1169409692E+02      0.5152826822E+02      0.1030028961E+04      0.5374494342E-01

    ------------------------------------------------
       NWT REQUIRED            3 OUTER ITERATIONS 
       AND A TOTAL OF          7 INNER ITERATIONS.
    ------------------------------------------------

 NO OUTPUT CONTROL FOR STRESS PERIOD   36   TIME STEP    3

 WELLS WITH REDUCED PUMPING FOR STRESS PERIOD    36 TIME STEP     3
   LAY   ROW   COL         APPL.Q          ACT.Q        GW-HEAD       CELL-BOT
     1    77   213  -0.620891E+03  -0.406070E+03   0.155230E+03   0.148000E+03
     1    92    77  -0.620891E+03  -0.289495E+03  -0.814909E+02  -0.930000E+02
     1    94    73  -0.620891E+03  -0.278259E+03  -0.646075E+02  -0.740000E+02


 SOLVING FOR HEAD 
                                                   Max.-Head-Change                        Max.-Flux-Residual
  Residual-Control   Outer-Iter.   Inner-Iter.     Column Row Layer    Max.-Head-Change    Column Row Layer    Max.-Flux-Residual            L2-New               L2-Old           Solver-Max-Delh
          0                 1           3           263   79     1       0.1633782968E+01     393  346    1       0.2032112649E+04      0.8417090824E+04      0.5152826822E+02      0.1633782968E+01
          0                 2           2           263   79     1      -0.1434566896E+00     393  346    1      -0.2033388265E+03      0.8431393948E+03      0.8417090824E+04     -0.1434566896E+00
          0                 3           2           457  453     1       0.5406509768E-01     393  346    1      -0.1016788821E+02      0.4234372431E+02      0.8431393948E+03      0.5406509768E-01

    ------------------------------------------------
       NWT REQUIRED            3 OUTER ITERATIONS 
       AND A TOTAL OF          7 INNER ITERATIONS.
    ------------------------------------------------

 NO OUTPUT CONTROL FOR STRESS PERIOD   36   TIME STEP    4

 WELLS WITH REDUCED PUMPING FOR STRESS PERIOD    36 TIME STEP     4
   LAY   ROW   COL         APPL.Q          ACT.Q        GW-HEAD       CELL-BOT
     1    77   213  -0.620891E+03  -0.422425E+03   0.155452E+03   0.148000E+03
     1    92    77  -0.620891E+03  -0.322316E+03  -0.806410E+02  -0.930000E+02
     1    94    73  -0.620891E+03  -0.281360E+03  -0.645401E+02  -0.740000E+02


 SOLVING FOR HEAD 
                                                   Max.-Head-Change                        Max.-Flux-Residual
  Residual-Control   Outer-Iter.   Inner-Iter.     Column Row Layer    Max.-Head-Change    Column Row Layer    Max.-Flux-Residual            L2-New               L2-Old           Solver-Max-Delh
          0                 1           3           264   78     1       0.1087196484E+01     383  326    1       0.1807338494E+04      0.7301260556E+04      0.4234372431E+02      0.1087196484E+01
          0                 2           2           264   78     1      -0.9531478662E-01     383  326    1      -0.1808436792E+03      0.7405999658E+03      0.7301260556E+04     -0.9531478662E-01

    ------------------------------------------------
       NWT REQUIRED            2 OUTER ITERATIONS 
       AND A TOTAL OF          5 INNER ITERATIONS.
    ------------------------------------------------

 NO OUTPUT CONTROL FOR STRESS PERIOD   36   TIME STEP    5

 WELLS WITH REDUCED PUMPING FOR STRESS PERIOD    36 TIME STEP     5
   LAY   ROW   COL         APPL.Q          ACT.Q        GW-HEAD       CELL-BOT
     1    77   213  -0.620891E+03  -0.437974E+03   0.155667E+03   0.148000E+03
     1    92    77  -0.620891E+03  -0.347291E+03  -0.799927E+02  -0.930000E+02
     1    94    73  -0.620891E+03  -0.284418E+03  -0.644736E+02  -0.740000E+02


 SOLVING FOR HEAD 
                                                   Max.-Head-Change                        Max.-Flux-Residual
  Residual-Control   Outer-Iter.   Inner-Iter.     Column Row Layer    Max.-Head-Change    Column Row Layer    Max.-Flux-Residual            L2-New               L2-Old           Solver-Max-Delh
          0                 1           3           264   78     1       0.9014515192E+00     383  326    1       0.1630833867E+04      0.6527466615E+04      0.3866929980E+02      0.9014515192E+00
          0                 2           2           264   78     1      -0.8027676116E-01     383  326    1      -0.1631893035E+03      0.6533197552E+03      0.6527466615E+04     -0.8027676116E-01

    ------------------------------------------------
       NWT REQUIRED            2 OUTER ITERATIONS 
       AND A TOTAL OF          5 INNER ITERATIONS.
    ------------------------------------------------

 NO OUTPUT CONTROL FOR STRESS PERIOD   36   TIME STEP    6

 WELLS WITH REDUCED PUMPING FOR STRESS PERIOD    36 TIME STEP     6
   LAY   ROW   COL         APPL.Q          ACT.Q        GW-HEAD       CELL-BOT
     1    77   213  -0.620891E+03  -0.452657E+03   0.155874E+03   0.148000E+03
     1    92    77  -0.620891E+03  -0.366107E+03  -0.795008E+02  -0.930000E+02
     1    94    73  -0.620891E+03  -0.287419E+03  -0.644083E+02  -0.740000E+02


 SOLVING FOR HEAD 
                                                   Max.-Head-Change                        Max.-Flux-Residual
  Residual-Control   Outer-Iter.   Inner-Iter.     Column Row Layer    Max.-Head-Change    Column Row Layer    Max.-Flux-Residual            L2-New               L2-Old           Solver-Max-Delh
          0                 1           3           264   78     1       0.7349755995E+00     383  326    1       0.1477256283E+04      0.5956192431E+04      0.3266801417E+02      0.7349755995E+00
          0                 2           2           204   88     1      -0.8408784354E-01     383  326    1      -0.1478249733E+03      0.6113380699E+03      0.5956192431E+04     -0.8408784354E-01

    ------------------------------------------------
       NWT REQUIRED            2 OUTER ITERATIONS 
       AND A TOTAL OF          5 INNER ITERATIONS.
    ------------------------------------------------

 NO OUTPUT CONTROL FOR STRESS PERIOD   36   TIME STEP    7

 WELLS WITH REDUCED PUMPING FOR STRESS PERIOD    36 TIME STEP     7
   LAY   ROW   COL         APPL.Q          ACT.Q        GW-HEAD       CELL-BOT
     1    77   213  -0.620891E+03  -0.466495E+03   0.156074E+03   0.148000E+03
     1    92    77  -0.620891E+03  -0.380279E+03  -0.791271E+02  -0.930000E+02
     1    94    73  -0.620891E+03  -0.290363E+03  -0.643444E+02  -0.740000E+02


 SOLVING FOR HEAD 
                                                   Max.-Head-Change                        Max.-Flux-Residual
  Residual-Control   Outer-Iter.   Inner-Iter.     Column Row Layer    Max.-Head-Change    Column Row Layer    Max.-Flux-Residual            L2-New               L2-Old           Solver-Max-Delh
          0                 1           3           343  217     1       0.6335513024E+00     383  326    1       0.1343214555E+04      0.5516089234E+04      0.3056571125E+02      0.6335513024E+00
          0                 2           2           457  453     1       0.5589003378E-01     383  326    1      -0.1344129436E+03      0.5517572867E+03      0.5516089234E+04      0.5589003378E-01

    ------------------------------------------------
       NWT REQUIRED            2 OUTER ITERATIONS 
       AND A TOTAL OF          5 INNER ITERATIONS.
    ------------------------------------------------

 NO OUTPUT CONTROL FOR STRESS PERIOD   36   TIME STEP    8

 WELLS WITH REDUCED PUMPING FOR STRESS PERIOD    36 TIME STEP     8
   LAY   ROW   COL         APPL.Q          ACT.Q        GW-HEAD       CELL-BOT
     1    77   213  -0.620891E+03  -0.479517E+03   0.156267E+03   0.148000E+03
     1    92    77  -0.620891E+03  -0.390961E+03  -0.788431E+02  -0.930000E+02
     1    94    73  -0.620891E+03  -0.293252E+03  -0.642817E+02  -0.740000E+02


 SOLVING FOR HEAD 
                                                   Max.-Head-Change                        Max.-Flux-Residual
  Residual-Control   Outer-Iter.   Inner-Iter.     Column Row Layer    Max.-Head-Change    Column Row Layer    Max.-Flux-Residual            L2-New               L2-Old           Solver-Max-Delh
          0                 1           3           343  217     1       0.5899117552E+00     383  326    1       0.1225873383E+04      0.5166283833E+04      0.2758519100E+02      0.5899117552E+00
          0                 2           2           457  453     1       0.5632359723E-01     383  326    1      -0.1226705443E+03      0.5166704086E+03      0.5166283833E+04      0.5632359723E-01

    ------------------------------------------------
       NWT REQUIRED            2 OUTER ITERATIONS 
       AND A TOTAL OF          5 INNER ITERATIONS.
    ------------------------------------------------

 NO OUTPUT CONTROL FOR STRESS PERIOD   36   TIME STEP    9

 WELLS WITH REDUCED PUMPING FOR STRESS PERIOD    36 TIME STEP     9
   LAY   ROW   COL         APPL.Q          ACT.Q        GW-HEAD       CELL-BOT
     1    77   213  -0.620891E+03  -0.491751E+03   0.156454E+03   0.148000E+03
     1    92    77  -0.620891E+03  -0.399017E+03  -0.786273E+02  -0.930000E+02
     1    94    73  -0.620891E+03  -0.296086E+03  -0.642202E+02  -0.740000E+02


 SOLVING FOR HEAD 
                                                   Max.-Head-Change                        Max.-Flux-Residual
  Residual-Control   Outer-Iter.   Inner-Iter.     Column Row Layer    Max.-Head-Change    Column Row Layer    Max.-Flux-Residual            L2-New               L2-Old           Solver-Max-Delh
          0                 1           3           343  217     1       0.5450781156E+00     383  326    1       0.1122846781E+04      0.4881740729E+04      0.2583409170E+02      0.5450781156E+00
          0                 2           2           457  453     1       0.5674746727E-01     383  326    1      -0.1123596972E+03      0.4884071454E+03      0.4881740729E+04      0.5674746727E-01

    ------------------------------------------------
       NWT REQUIRED            2 OUTER ITERATIONS 
       AND A TOTAL OF          5 INNER ITERATIONS.
    ------------------------------------------------

 OUTPUT CONTROL FOR STRESS PERIOD   36   TIME STEP   10
    SAVE HEAD FOR ALL LAYERS

 WELLS WITH REDUCED PUMPING FOR STRESS PERIOD    36 TIME STEP    10
   LAY   ROW   COL         APPL.Q          ACT.Q        GW-HEAD       CELL-BOT
     1    77   213  -0.620891E+03  -0.503227E+03   0.156634E+03   0.148000E+03
     1    92    77  -0.620891E+03  -0.405095E+03  -0.784635E+02  -0.930000E+02
     1    94    73  -0.620891E+03  -0.298865E+03  -0.641599E+02  -0.740000E+02


 HEAD WILL BE SAVED ON UNIT   51 AT END OF TIME STEP   10, STRESS PERIOD   36
1
  VOLUMETRIC BUDGET FOR ENTIRE MODEL AT END OF TIME STEP   10, STRESS PERIOD  36
  ------------------------------------------------------------------------------

     CUMULATIVE VOLUMES      L**3       RATES FOR THIS TIME STEP      L**3/T
     ------------------                 ------------------------

           IN:                                      IN:
           ---                                      ---
             STORAGE =   410305760.0000               STORAGE =      158818.5000
       CONSTANT HEAD =    54702176.0000         CONSTANT HEAD =       51775.5000
               WELLS =           0.0000                 WELLS =           0.0000
              DRAINS =           0.0000                DRAINS =           0.0000
                  ET =           0.0000                    ET =           0.0000
            RECHARGE =   200566576.0000              RECHARGE =      135549.3750

            TOTAL IN =   665574528.0000              TOTAL IN =      346143.3750

          OUT:                                     OUT:
          ----                                     ----
             STORAGE =   145090864.0000               STORAGE =       81523.6250
       CONSTANT HEAD =           0.0000         CONSTANT HEAD =           0.0000
               WELLS =   345898912.0000                 WELLS =       95534.6797
              DRAINS =   121313352.0000                DRAINS =      123189.1875
                  ET =    52448908.0000                    ET =       45514.8672
            RECHARGE =       81860.0000              RECHARGE =           0.0000

           TOTAL OUT =   664833856.0000             TOTAL OUT =      345762.3750

            IN - OUT =      740672.0000              IN - OUT =         381.0000

 PERCENT DISCREPANCY =           0.11     PERCENT DISCREPANCY =           0.11






         TIME SUMMARY AT END OF TIME STEP   10 IN STRESS PERIOD   36
                    SECONDS     MINUTES      HOURS       DAYS        YEARS
                    -----------------------------------------------------------
   TIME STEP LENGTH 2.62656E+05  4377.6      72.960      3.0400     8.32307E-03
 STRESS PERIOD TIME 2.62656E+06  43776.      729.60      30.400     8.32307E-02
         TOTAL TIME 9.45560E+07 1.57593E+06  26266.      1094.4      2.9963    
1
1
                            STRESS PERIOD NO.   37, LENGTH =   30.40000    
                            -----------------------------------------------

                              NUMBER OF TIME STEPS =    10

                               MULTIPLIER FOR DELT =     1.000

                            INITIAL TIME STEP SIZE =   3.040000    

 WELL NO.  LAYER   ROW   COL   STRESS RATE         
 --------------------------------------------------
      1      1     69    225      -3110.    
      2      1     71    224       0.000    
      3      1     74    220       0.000    
      4      1     73    220       0.000    
      5      1     71    223       0.000    
      6      1     71    223       0.000    
      7      1     72    223       0.000    
      8      1     92    173       0.000    
      9      1     94    174       0.000    
     10      1     93    175       0.000    
     11      1    203    328       0.000    
     12      1    438    460      -550.5    
     13      1    436    461      -550.5    
     14      1    410    454      -550.5    
     15      1    433    460      -550.5    
     16      1    431    462      -550.5    
     17      1    417    459      -550.5    
     18      1    418    458      -550.5    
     19      1    414    455      -550.5    
     20      1    443    464      -550.5    
     21      1    379    425      -550.5    
     22      1    362    405      -550.5    
     23      1    361    405      -550.5    
     24      1    362    406      -550.5    
     25      1    363    408      -550.5    
     26      1    364    410      -550.5    
     27      1    369    418      -550.5    
     28      1    367    417      -550.5    
     29      1    365    415      -550.5    
     30      1    402    447      -550.5    
     31      1    400    446      -550.5    
     32      1    392    444      -550.5    
     33      1    391    441      -550.5    
     34      1    403    448      -550.5    
     35      1    405    447      -550.5    
     36      1    362    410      -550.5    
     37      1    362    411      -550.5    
     38      1    363    412      -550.5    
     39      1    375    421      -550.5    
     40      1    383    430      -550.5    
     41      1    397    445      -550.5    
     42      1    360    403      -550.5    
     43      1    350    401      -550.5    
     44      1    346    393      -581.6    
     45      1    333    387      -581.6    
     46      1    328    384      -581.6    
     47      1    326    383      -581.6    
     48      1    323    378      -581.6    
     49      1    321    378      -581.6    
     50      1    322    376      -581.6    
     51      1    316    374      -581.6    
     52      1    311    371      -581.6    
     53      1    307    369      -581.6    
     54      1    305    368      -581.6    
     55      1    303    368      -581.6    
     56      1    300    369      -581.6    
     57      1    293    364      -581.6    
     58      1    292    362      -581.6    
     59      1    278    350      -581.6    
     60      1    274    351      -581.6    
     61      1    273    350      -581.6    
     62      1    271    350      -581.6    
     63      1    267    348      -581.6    
     64      1    263    348      -581.6    
     65      1    263    348      -581.6    
     66      1    248    347      -581.6    
     67      1    243    342      -581.6    
     68      1    242    339      -581.6    
     69      1    238    341      -581.6    
     70      1    233    340      -581.6    
     71      1    232    340      -581.6    
     72      1    229    341      -581.6    
     73      1    227    341      -581.6    
     74      1    219    342      -581.6    
     75      1    219    336      -581.6    
     76      1    199    329      -581.6    
     77      1    191    332      -205.5    
     78      1    190    332      -205.5    
     79      1    130    310      -205.5    
     80      1    123    305      -205.5    
     81      1    104    289      -205.5    
     82      1     96    287      -1045.    
     83      1     95    284      -1045.    
     84      1     95    280      -1045.    
     85      1     93    276      -1045.    
     86      1     94    275      -1045.    
     87      1     90    277      -1045.    
     88      1     90    273      -1045.    
     89      1     86    271      -1045.    
     90      1     85    270      -1045.    
     91      1     84    265      -1045.    
     92      1     85    265      -1045.    
     93      1     84    264      -1045.    
     94      1     79    263      -1045.    
     95      1     79    263      -1045.    
     96      1     76    262      -1045.    
     97      1     73    257      -1045.    
     98      1     74    255      -1045.    
     99      1     71    255      -1045.    
    100      1     66    253      -1045.    
    101      1     68    252      -1045.    
    102      1     69    250      -1045.    
    103      1     65    248      -1045.    
    104      1     68    248      -1045.    
    105      1     69    247      -1045.    
    106      1     73    247      -1045.    
    107      1     64    246      -1045.    
    108      1     69    245      -1045.    
    109      1     72    245      -1045.    
    110      1     69    241      -1045.    
    111      1     73    238      -1045.    
    112      1     70    238      -1045.    
    113      1     76    263      -1045.    
    114      1     66    232      -728.1    
    115      1     69    229      -728.1    
    116      1     71    228      -728.1    
    117      1     69    227      -728.1    
    118      1     72    219      -728.1    
    119      1     72    218      -728.1    
    120      1     72    218      -728.1    
    121      1     73    217      -728.1    
    122      1     77    219      -728.1    
    123      1     78    219      -728.1    
    124      1     83    213      -728.1    
    125      1     77    213      -728.1    
    126      1     81    211      -728.1    
    127      1     81    210      -728.1    
    128      1     81    210      -728.1    
    129      1     82    208      -728.1    
    130      1     80    205      -728.1    
    131      1     86    202      -728.1    
    132      1     84    200      -728.1    
    133      1     89    200      -728.1    
    134      1     89    199      -728.1    
    135      1     88    199      -728.1    
    136      1     86    199      -728.1    
    137      1     85    199      -728.1    
    138      1     82    197      -728.1    
    139      1     86    197      -728.1    
    140      1     88    198      -728.1    
    141      1     90    192      -728.1    
    142      1     89    191      -728.1    
    143      1     84    192      -728.1    
    144      1     91    189      -728.1    
    145      1     92    185      -728.1    
    146      1     87    183      -728.1    
    147      1     92    182      -728.1    
    148      1     90    182      -728.1    
    149      1     88    179      -728.1    
    150      1     89    176      -728.1    
    151      1     92    172      -728.1    
    152      1     93    164      -728.1    
    153      1     94    162      -728.1    
    154      1    103    156      -728.1    
    155      1    103    156      -728.1    
    156      1     96    154      -728.1    
    157      1     97    153      -728.1    
    158      1    122    139      -728.1    
    159      1     92     77      -728.1    
    160      1     94     77      -728.1    
    161      1     94     73      -728.1    
    162      1     97    152      -728.1    
    163      1    118    337      -666.7    
    164      1    133    319      -2678.    
    165      1    131    320      -3951.    
    166      1    133    321      -2956.    
    167      1    161    329      -2141.    
    168      1    178    330      -551.0    
    169      1    163    330      -1122.    
    170      1    131    320      -2473.    
    171      1    129    315      -3937.    
    172      1    162    329      -1959.    
    173      1    131    311      -826.1    
    174      1    221    340      -1994.    
    175      1    220    340      -1034.    
    176      1    221    340      -667.7    
    177      1    137    322      -2082.    
    178      1    137    321      -1407.    
    179      1    185    329      -2012.    
    180      1    183    329      -1473.    
    181      1    175    329      -585.3    
    182      1     79    243      -1490.    
    183      1     77    245      -2414.    
    184      1    199    329      -1617.    
    185      1    198    330      -2514.    
    186      1    140    328      -972.1    
    187      1    143    327      -863.6    
    188      1    139    327      -1331.    

    188 WELLS

 REUSING NON-PARAMETER DRAINS FROM LAST STRESS PERIOD

   1061 DRAINS

 REUSING SURF FROM LAST STRESS PERIOD

 REUSING EVTR FROM LAST STRESS PERIOD

 REUSING EXDP FROM LAST STRESS PERIOD



                           RECHARGE
 READING ON UNIT   19 WITH FORMAT: (510E15.6)          

 SOLVING FOR HEAD 
                                                   Max.-Head-Change                        Max.-Flux-Residual
  Residual-Control   Outer-Iter.   Inner-Iter.     Column Row Layer    Max.-Head-Change    Column Row Layer    Max.-Flux-Residual            L2-New               L2-Old           Solver-Max-Delh
          0                 1           3           263   79     1      -0.2843354226E+01     263   79    1      -0.1039528263E+04      0.7724949710E+04      0.4884071454E+03     -0.2843354226E+01
          0                 2           2           263   79     1       0.2400806775E+00     263   79    1       0.1026607380E+03      0.7745537372E+03      0.7724949710E+04      0.2400806775E+00
          0                 3           2           457  453     1       0.5697730450E-01     263   79    1       0.5125318841E+01      0.3871802740E+02      0.7745537372E+03      0.5697730450E-01

    ------------------------------------------------
       NWT REQUIRED            3 OUTER ITERATIONS 
       AND A TOTAL OF          7 INNER ITERATIONS.
    ------------------------------------------------

 NO OUTPUT CONTROL FOR STRESS PERIOD   37   TIME STEP    1

 WELLS WITH REDUCED PUMPING FOR STRESS PERIOD    37 TIME STEP     1
   LAY   ROW   COL         APPL.Q          ACT.Q        GW-HEAD       CELL-BOT
     1    77   213  -0.728135E+03  -0.600411E+03   0.156776E+03   0.148000E+03
     1    92    77  -0.728135E+03  -0.463677E+03  -0.787248E+02  -0.930000E+02
     1    94    73  -0.728135E+03  -0.352651E+03  -0.641199E+02  -0.740000E+02


 SOLVING FOR HEAD 
                                                   Max.-Head-Change                        Max.-Flux-Residual
  Residual-Control   Outer-Iter.   Inner-Iter.     Column Row Layer    Max.-Head-Change    Column Row Layer    Max.-Flux-Residual            L2-New               L2-Old           Solver-Max-Delh
          0                 1           3           263   79     1      -0.1069535630E+01     139  122    1       0.6535677556E+03      0.5074906923E+04      0.3871802740E+02     -0.1069535630E+01
          0                 2           2           263   79     1       0.9196706251E-01     139  122    1      -0.6536571550E+02      0.5078330283E+03      0.5074906923E+04      0.9196706251E-01

    ------------------------------------------------
       NWT REQUIRED            2 OUTER ITERATIONS 
       AND A TOTAL OF          5 INNER ITERATIONS.
    ------------------------------------------------

 NO OUTPUT CONTROL FOR STRESS PERIOD   37   TIME STEP    2

 WELLS WITH REDUCED PUMPING FOR STRESS PERIOD    37 TIME STEP     2
   LAY   ROW   COL         APPL.Q          ACT.Q        GW-HEAD       CELL-BOT
     1    77   213  -0.728135E+03  -0.610077E+03   0.156913E+03   0.148000E+03
     1    92    77  -0.728135E+03  -0.455079E+03  -0.789207E+02  -0.930000E+02
     1    94    73  -0.728135E+03  -0.354776E+03  -0.640807E+02  -0.740000E+02


 SOLVING FOR HEAD 
                                                   Max.-Head-Change                        Max.-Flux-Residual
  Residual-Control   Outer-Iter.   Inner-Iter.     Column Row Layer    Max.-Head-Change    Column Row Layer    Max.-Flux-Residual            L2-New               L2-Old           Solver-Max-Delh
          0                 1           3           263   79     1      -0.4070081804E+00     139  122    1       0.6334379235E+03      0.4426519788E+04      0.2539532841E+02     -0.4070081804E+00
          0                 2           2           457  453     1       0.5777199823E-01     139  122    1      -0.6335234156E+02      0.4428328218E+03      0.4426519788E+04      0.5777199823E-01

    ------------------------------------------------
       NWT REQUIRED            2 OUTER ITERATIONS 
       AND A TOTAL OF          5 INNER ITERATIONS.
    ------------------------------------------------

 NO OUTPUT CONTROL FOR STRESS PERIOD   37   TIME STEP    3

 WELLS WITH REDUCED PUMPING FOR STRESS PERIOD    37 TIME STEP     3
   LAY   ROW   COL         APPL.Q          ACT.Q        GW-HEAD       CELL-BOT
     1    77   213  -0.728135E+03  -0.619133E+03   0.157046E+03   0.148000E+03
     1    92    77  -0.728135E+03  -0.448634E+03  -0.790667E+02  -0.930000E+02
     1    94    73  -0.728135E+03  -0.356851E+03  -0.640423E+02  -0.740000E+02


 SOLVING FOR HEAD 
                                                   Max.-Head-Change                        Max.-Flux-Residual
  Residual-Control   Outer-Iter.   Inner-Iter.     Column Row Layer    Max.-Head-Change    Column Row Layer    Max.-Flux-Residual            L2-New               L2-Old           Solver-Max-Delh
          0                 1           3           197   82     1       0.2528120112E+00     197   82    1       0.6175687940E+03      0.4077085523E+04      0.4428328218E+03      0.2528120112E+00
          0                 2           2           457  453     1       0.5815689961E-01     197   82    1      -0.6176383753E+02      0.4078044778E+03      0.4077085523E+04      0.5815689961E-01

    ------------------------------------------------
       NWT REQUIRED            2 OUTER ITERATIONS 
       AND A TOTAL OF          5 INNER ITERATIONS.
    ------------------------------------------------

 NO OUTPUT CONTROL FOR STRESS PERIOD   37   TIME STEP    4

 WELLS WITH REDUCED PUMPING FOR STRESS PERIOD    37 TIME STEP     4
   LAY   ROW   COL         APPL.Q          ACT.Q        GW-HEAD       CELL-BOT
     1    77   213  -0.728135E+03  -0.627612E+03   0.157173E+03   0.148000E+03
     1    92    77  -0.728135E+03  -0.443798E+03  -0.791760E+02  -0.930000E+02
     1    94    73  -0.728135E+03  -0.358879E+03  -0.640048E+02  -0.740000E+02


 SOLVING FOR HEAD 
                                                   Max.-Head-Change                        Max.-Flux-Residual
  Residual-Control   Outer-Iter.   Inner-Iter.     Column Row Layer    Max.-Head-Change    Column Row Layer    Max.-Flux-Residual            L2-New               L2-Old           Solver-Max-Delh
          0                 1           3           197   82     1       0.2482946163E+00     197   82    1       0.6065197095E+03      0.3848890201E+04      0.4078044778E+03      0.2482946163E+00
          0                 2           2           457  453     1       0.5853209314E-01     197   82    1      -0.6065873818E+02      0.3849258657E+03      0.3848890201E+04      0.5853209314E-01

    ------------------------------------------------
       NWT REQUIRED            2 OUTER ITERATIONS 
       AND A TOTAL OF          5 INNER ITERATIONS.
    ------------------------------------------------

 NO OUTPUT CONTROL FOR STRESS PERIOD   37   TIME STEP    5

 WELLS WITH REDUCED PUMPING FOR STRESS PERIOD    37 TIME STEP     5
   LAY   ROW   COL         APPL.Q          ACT.Q        GW-HEAD       CELL-BOT
     1    77   213  -0.728135E+03  -0.635547E+03   0.157297E+03   0.148000E+03
     1    92    77  -0.728135E+03  -0.440156E+03  -0.792581E+02  -0.930000E+02
     1    94    73  -0.728135E+03  -0.360861E+03  -0.639682E+02  -0.740000E+02


 SOLVING FOR HEAD 
                                                   Max.-Head-Change                        Max.-Flux-Residual
  Residual-Control   Outer-Iter.   Inner-Iter.     Column Row Layer    Max.-Head-Change    Column Row Layer    Max.-Flux-Residual            L2-New               L2-Old           Solver-Max-Delh
          0                 1           3           197   82     1       0.2438668111E+00     197   82    1       0.5956889138E+03      0.3683848387E+04      0.3849258657E+03      0.2438668111E+00
          0                 2           2           457  453     1       0.5889746215E-01     197   82    1      -0.5957547493E+02      0.3684127530E+03      0.3683848387E+04      0.5889746215E-01

    ------------------------------------------------
       NWT REQUIRED            2 OUTER ITERATIONS 
       AND A TOTAL OF          5 INNER ITERATIONS.
    ------------------------------------------------

 NO OUTPUT CONTROL FOR STRESS PERIOD   37   TIME STEP    6

 WELLS WITH REDUCED PUMPING FOR STRESS PERIOD    37 TIME STEP     6
   LAY   ROW   COL         APPL.Q          ACT.Q        GW-HEAD       CELL-BOT
     1    77   213  -0.728135E+03  -0.642971E+03   0.157416E+03   0.148000E+03
     1    92    77  -0.728135E+03  -0.437399E+03  -0.793201E+02  -0.930000E+02
     1    94    73  -0.728135E+03  -0.362796E+03  -0.639324E+02  -0.740000E+02


 SOLVING FOR HEAD 
                                                   Max.-Head-Change                        Max.-Flux-Residual
  Residual-Control   Outer-Iter.   Inner-Iter.     Column Row Layer    Max.-Head-Change    Column Row Layer    Max.-Flux-Residual            L2-New               L2-Old           Solver-Max-Delh
          0                 1           3           197   82     1       0.2395268209E+00     197   82    1       0.5850726263E+03      0.3556255037E+04      0.3684127530E+03      0.2395268209E+00
          0                 2           2           457  453     1       0.5925289510E-01     197   82    1      -0.5851366835E+02      0.3556395712E+03      0.3556255037E+04      0.5925289510E-01

    ------------------------------------------------
       NWT REQUIRED            2 OUTER ITERATIONS 
       AND A TOTAL OF          5 INNER ITERATIONS.
    ------------------------------------------------

 NO OUTPUT CONTROL FOR STRESS PERIOD   37   TIME STEP    7

 WELLS WITH REDUCED PUMPING FOR STRESS PERIOD    37 TIME STEP     7
   LAY   ROW   COL         APPL.Q          ACT.Q        GW-HEAD       CELL-BOT
     1    77   213  -0.728135E+03  -0.649912E+03   0.157531E+03   0.148000E+03
     1    92    77  -0.728135E+03  -0.435296E+03  -0.793673E+02  -0.930000E+02
     1    94    73  -0.728135E+03  -0.364687E+03  -0.638975E+02  -0.740000E+02


 SOLVING FOR HEAD 
                                                   Max.-Head-Change                        Max.-Flux-Residual
  Residual-Control   Outer-Iter.   Inner-Iter.     Column Row Layer    Max.-Head-Change    Column Row Layer    Max.-Flux-Residual            L2-New               L2-Old           Solver-Max-Delh
          0                 1           3           197   82     1       0.2352729185E+00     197   82    1       0.5746668735E+03      0.3452823351E+04      0.3556395712E+03      0.2352729185E+00
          0                 2           2           457  453     1       0.5959828241E-01     197   82    1      -0.5747292045E+02      0.3452963334E+03      0.3452823351E+04      0.5959828241E-01

    ------------------------------------------------
       NWT REQUIRED            2 OUTER ITERATIONS 
       AND A TOTAL OF          5 INNER ITERATIONS.
    ------------------------------------------------

 NO OUTPUT CONTROL FOR STRESS PERIOD   37   TIME STEP    8

 WELLS WITH REDUCED PUMPING FOR STRESS PERIOD    37 TIME STEP     8
   LAY   ROW   COL         APPL.Q          ACT.Q        GW-HEAD       CELL-BOT
     1    77   213  -0.728135E+03  -0.656398E+03   0.157643E+03   0.148000E+03
     1    92    77  -0.728135E+03  -0.433677E+03  -0.794037E+02  -0.930000E+02
     1    94    73  -0.728135E+03  -0.366533E+03  -0.638634E+02  -0.740000E+02


 SOLVING FOR HEAD 
                                                   Max.-Head-Change                        Max.-Flux-Residual
  Residual-Control   Outer-Iter.   Inner-Iter.     Column Row Layer    Max.-Head-Change    Column Row Layer    Max.-Flux-Residual            L2-New               L2-Old           Solver-Max-Delh
          0                 1           3           197   82     1       0.2311032332E+00     197   82    1       0.5644671843E+03      0.3366005453E+04      0.3452963334E+03      0.2311032332E+00
          0                 2           2           457  453     1       0.5993351778E-01     197   82    1      -0.5645278378E+02      0.3365987686E+03      0.3366005453E+04      0.5993351778E-01

    ------------------------------------------------
       NWT REQUIRED            2 OUTER ITERATIONS 
       AND A TOTAL OF          5 INNER ITERATIONS.
    ------------------------------------------------

 NO OUTPUT CONTROL FOR STRESS PERIOD   37   TIME STEP    9

 WELLS WITH REDUCED PUMPING FOR STRESS PERIOD    37 TIME STEP     9
   LAY   ROW   COL         APPL.Q          ACT.Q        GW-HEAD       CELL-BOT
     1    77   213  -0.728135E+03  -0.662457E+03   0.157751E+03   0.148000E+03
     1    92    77  -0.728135E+03  -0.432415E+03  -0.794320E+02  -0.930000E+02
     1    94    73  -0.728135E+03  -0.368336E+03  -0.638301E+02  -0.740000E+02


 SOLVING FOR HEAD 
                                                   Max.-Head-Change                        Max.-Flux-Residual
  Residual-Control   Outer-Iter.   Inner-Iter.     Column Row Layer    Max.-Head-Change    Column Row Layer    Max.-Flux-Residual            L2-New               L2-Old           Solver-Max-Delh
          0                 1           3           197   82     1       0.2270160198E+00     197   82    1       0.5544693353E+03      0.3291208516E+04      0.3365987686E+03      0.2270160198E+00
          0                 2           2           457  453     1       0.6025849898E-01     197   82    1      -0.5545283575E+02      0.3292116670E+03      0.3291208516E+04      0.6025849898E-01

    ------------------------------------------------
       NWT REQUIRED            2 OUTER ITERATIONS 
       AND A TOTAL OF          5 INNER ITERATIONS.
    ------------------------------------------------

 OUTPUT CONTROL FOR STRESS PERIOD   37   TIME STEP   10
    SAVE HEAD FOR ALL LAYERS

 WELLS WITH REDUCED PUMPING FOR STRESS PERIOD    37 TIME STEP    10
   LAY   ROW   COL         APPL.Q          ACT.Q        GW-HEAD       CELL-BOT
     1    77   213  -0.728135E+03  -0.668113E+03   0.157855E+03   0.148000E+03
     1    92    77  -0.728135E+03  -0.431416E+03  -0.794544E+02  -0.930000E+02
     1    94    77  -0.728135E+03  -0.728057E+03  -0.795170E+02  -0.102000E+03
     1    94    73  -0.728135E+03  -0.370098E+03  -0.637975E+02  -0.740000E+02


 HEAD WILL BE SAVED ON UNIT   51 AT END OF TIME STEP   10, STRESS PERIOD   37
1
  VOLUMETRIC BUDGET FOR ENTIRE MODEL AT END OF TIME STEP   10, STRESS PERIOD  37
  ------------------------------------------------------------------------------

     CUMULATIVE VOLUMES      L**3       RATES FOR THIS TIME STEP      L**3/T
     ------------------                 ------------------------

           IN:                                      IN:
           ---                                      ---
             STORAGE =   414589248.0000               STORAGE =      132206.7656
       CONSTANT HEAD =    56276616.0000         CONSTANT HEAD =       51802.7852
               WELLS =           0.0000                 WELLS =           0.0000
              DRAINS =           0.0000                DRAINS =           0.0000
                  ET =           0.0000                    ET =           0.0000
            RECHARGE =   206052496.0000              RECHARGE =      180460.4844

            TOTAL IN =   676918336.0000              TOTAL IN =      364470.0312

          OUT:                                     OUT:
          ----                                     ----
             STORAGE =   146939584.0000               STORAGE =       51610.7227
       CONSTANT HEAD =           0.0000         CONSTANT HEAD =           0.0000
               WELLS =   350237120.0000                 WELLS =      142733.0000
              DRAINS =   125065224.0000                DRAINS =      123630.0703
                  ET =    53842976.0000                    ET =       46096.1445
            RECHARGE =       81860.0000              RECHARGE =           0.0000

           TOTAL OUT =   676166720.0000             TOTAL OUT =      364069.9375

            IN - OUT =      751616.0000              IN - OUT =         400.0938

 PERCENT DISCREPANCY =           0.11     PERCENT DISCREPANCY =           0.11






         TIME SUMMARY AT END OF TIME STEP   10 IN STRESS PERIOD   37
                    SECONDS     MINUTES      HOURS       DAYS        YEARS
                    -----------------------------------------------------------
   TIME STEP LENGTH 2.62656E+05  4377.6      72.960      3.0400     8.32307E-03
 STRESS PERIOD TIME 2.62656E+06  43776.      729.60      30.400     8.32307E-02
         TOTAL TIME 9.71826E+07 1.61971E+06  26995.      1124.8      3.0795    
1
1
                            STRESS PERIOD NO.   38, LENGTH =   30.40000    
                            -----------------------------------------------

                              NUMBER OF TIME STEPS =    10

                               MULTIPLIER FOR DELT =     1.000

                            INITIAL TIME STEP SIZE =   3.040000    

 WELL NO.  LAYER   ROW   COL   STRESS RATE         
 --------------------------------------------------
      1      1     69    225      -3197.    
      2      1     71    224       0.000    
      3      1     74    220       0.000    
      4      1     73    220       0.000    
      5      1     71    223       0.000    
      6      1     71    223       0.000    
      7      1     72    223       0.000    
      8      1     92    173       0.000    
      9      1     94    174       0.000    
     10      1     93    175       0.000    
     11      1    203    328       0.000    
     12      1    438    460      -2834.    
     13      1    436    461      -2834.    
     14      1    410    454      -2834.    
     15      1    433    460      -2834.    
     16      1    431    462      -2834.    
     17      1    417    459      -2834.    
     18      1    418    458      -2834.    
     19      1    414    455      -2834.    
     20      1    443    464      -2834.    
     21      1    379    425      -2834.    
     22      1    362    405      -2834.    
     23      1    361    405      -2834.    
     24      1    362    406      -2834.    
     25      1    363    408      -2834.    
     26      1    364    410      -2834.    
     27      1    369    418      -2834.    
     28      1    367    417      -2834.    
     29      1    365    415      -2834.    
     30      1    402    447      -2834.    
     31      1    400    446      -2834.    
     32      1    392    444      -2834.    
     33      1    391    441      -2834.    
     34      1    403    448      -2834.    
     35      1    405    447      -2834.    
     36      1    362    410      -2834.    
     37      1    362    411      -2834.    
     38      1    363    412      -2834.    
     39      1    375    421      -2834.    
     40      1    383    430      -2834.    
     41      1    397    445      -2834.    
     42      1    360    403      -2834.    
     43      1    350    401      -2834.    
     44      1    346    393      -3672.    
     45      1    333    387      -3672.    
     46      1    328    384      -3672.    
     47      1    326    383      -3672.    
     48      1    323    378      -3672.    
     49      1    321    378      -3672.    
     50      1    322    376      -3672.    
     51      1    316    374      -3672.    
     52      1    311    371      -3672.    
     53      1    307    369      -3672.    
     54      1    305    368      -3672.    
     55      1    303    368      -3672.    
     56      1    300    369      -3672.    
     57      1    293    364      -3672.    
     58      1    292    362      -3672.    
     59      1    278    350      -3672.    
     60      1    274    351      -3672.    
     61      1    273    350      -3672.    
     62      1    271    350      -3672.    
     63      1    267    348      -3672.    
     64      1    263    348      -3672.    
     65      1    263    348      -3672.    
     66      1    248    347      -3672.    
     67      1    243    342      -3672.    
     68      1    242    339      -3672.    
     69      1    238    341      -3672.    
     70      1    233    340      -3672.    
     71      1    232    340      -3672.    
     72      1    229    341      -3672.    
     73      1    227    341      -3672.    
     74      1    219    342      -3672.    
     75      1    219    336      -3672.    
     76      1    199    329      -3672.    
     77      1    191    332      -4872.    
     78      1    190    332      -4872.    
     79      1    130    310      -4872.    
     80      1    123    305      -4872.    
     81      1    104    289      -4872.    
     82      1     96    287      -4290.    
     83      1     95    284      -4290.    
     84      1     95    280      -4290.    
     85      1     93    276      -4290.    
     86      1     94    275      -4290.    
     87      1     90    277      -4290.    
     88      1     90    273      -4290.    
     89      1     86    271      -4290.    
     90      1     85    270      -4290.    
     91      1     84    265      -4290.    
     92      1     85    265      -4290.    
     93      1     84    264      -4290.    
     94      1     79    263      -4290.    
     95      1     79    263      -4290.    
     96      1     76    262      -4290.    
     97      1     73    257      -4290.    
     98      1     74    255      -4290.    
     99      1     71    255      -4290.    
    100      1     66    253      -4290.    
    101      1     68    252      -4290.    
    102      1     69    250      -4290.    
    103      1     65    248      -4290.    
    104      1     68    248      -4290.    
    105      1     69    247      -4290.    
    106      1     73    247      -4290.    
    107      1     64    246      -4290.    
    108      1     69    245      -4290.    
    109      1     72    245      -4290.    
    110      1     69    241      -4290.    
    111      1     73    238      -4290.    
    112      1     70    238      -4290.    
    113      1     76    263      -4290.    
    114      1     66    232      -2310.    
    115      1     69    229      -2310.    
    116      1     71    228      -2310.    
    117      1     69    227      -2310.    
    118      1     72    219      -2310.    
    119      1     72    218      -2310.    
    120      1     72    218      -2310.    
    121      1     73    217      -2310.    
    122      1     77    219      -2310.    
    123      1     78    219      -2310.    
    124      1     83    213      -2310.    
    125      1     77    213      -2310.    
    126      1     81    211      -2310.    
    127      1     81    210      -2310.    
    128      1     81    210      -2310.    
    129      1     82    208      -2310.    
    130      1     80    205      -2310.    
    131      1     86    202      -2310.    
    132      1     84    200      -2310.    
    133      1     89    200      -2310.    
    134      1     89    199      -2310.    
    135      1     88    199      -2310.    
    136      1     86    199      -2310.    
    137      1     85    199      -2310.    
    138      1     82    197      -2310.    
    139      1     86    197      -2310.    
    140      1     88    198      -2310.    
    141      1     90    192      -2310.    
    142      1     89    191      -2310.    
    143      1     84    192      -2310.    
    144      1     91    189      -2310.    
    145      1     92    185      -2310.    
    146      1     87    183      -2310.    
    147      1     92    182      -2310.    
    148      1     90    182      -2310.    
    149      1     88    179      -2310.    
    150      1     89    176      -2310.    
    151      1     92    172      -2310.    
    152      1     93    164      -2310.    
    153      1     94    162      -2310.    
    154      1    103    156      -2310.    
    155      1    103    156      -2310.    
    156      1     96    154      -2310.    
    157      1     97    153      -2310.    
    158      1    122    139      -2310.    
    159      1     92     77      -2310.    
    160      1     94     77      -2310.    
    161      1     94     73      -2310.    
    162      1     97    152      -2310.    
    163      1    118    337      -666.7    
    164      1    133    319      -2678.    
    165      1    131    320      -3951.    
    166      1    133    321      -2956.    
    167      1    161    329      -2141.    
    168      1    178    330      -551.0    
    169      1    163    330      -1122.    
    170      1    131    320      -2473.    
    171      1    129    315      -3937.    
    172      1    162    329      -1959.    
    173      1    131    311      -826.1    
    174      1    221    340      -1994.    
    175      1    220    340      -1034.    
    176      1    221    340      -667.7    
    177      1    137    322      -2082.    
    178      1    137    321      -1407.    
    179      1    185    329      -2012.    
    180      1    183    329      -1473.    
    181      1    175    329      -585.3    
    182      1     79    243      -1490.    
    183      1     77    245      -2414.    
    184      1    199    329      -1617.    
    185      1    198    330      -2514.    
    186      1    140    328      -972.1    
    187      1    143    327      -863.6    
    188      1    139    327      -1331.    

    188 WELLS

 REUSING NON-PARAMETER DRAINS FROM LAST STRESS PERIOD

   1061 DRAINS

 REUSING SURF FROM LAST STRESS PERIOD

 REUSING EVTR FROM LAST STRESS PERIOD

 REUSING EXDP FROM LAST STRESS PERIOD



                           RECHARGE
 READING ON UNIT   19 WITH FORMAT: (510E15.6)          

 SOLVING FOR HEAD 
                                                   Max.-Head-Change                        Max.-Flux-Residual
  Residual-Control   Outer-Iter.   Inner-Iter.     Column Row Layer    Max.-Head-Change    Column Row Layer    Max.-Flux-Residual            L2-New               L2-Old           Solver-Max-Delh
          0                 1           3           263   79     1      -0.1836537732E+02     263   79    1      -0.6465974420E+04      0.3224519476E+05      0.3292116670E+03     -0.1836537732E+02
          0                 2           2           263   79     1       0.1406912457E+01     310  130    1       0.6055971344E+03      0.3203271882E+04      0.3224519476E+05      0.1406912457E+01
          0                 3           2           263   79     1       0.6881130059E-01     310  130    1       0.3025575277E+02      0.1599239449E+03      0.3203271882E+04      0.6881130059E-01

    ------------------------------------------------
       NWT REQUIRED            3 OUTER ITERATIONS 
       AND A TOTAL OF          7 INNER ITERATIONS.
    ------------------------------------------------

 NO OUTPUT CONTROL FOR STRESS PERIOD   38   TIME STEP    1

 WELLS WITH REDUCED PUMPING FOR STRESS PERIOD    38 TIME STEP     1
   LAY   ROW   COL         APPL.Q          ACT.Q        GW-HEAD       CELL-BOT
     1    77   213  -0.230952E+04  -0.204526E+04   0.157446E+03   0.148000E+03
     1    92    77  -0.230952E+04  -0.897991E+03  -0.827482E+02  -0.930000E+02
     1    94    77  -0.230952E+04  -0.229969E+04  -0.802447E+02  -0.102000E+03
     1    94    73  -0.230952E+04  -0.113127E+04  -0.640458E+02  -0.740000E+02


 SOLVING FOR HEAD 
                                                   Max.-Head-Change                        Max.-Flux-Residual
  Residual-Control   Outer-Iter.   Inner-Iter.     Column Row Layer    Max.-Head-Change    Column Row Layer    Max.-Flux-Residual            L2-New               L2-Old           Solver-Max-Delh
          0                 1           3           263   79     1      -0.7567122850E+01     332  190    1      -0.2642909689E+04      0.1597256477E+05      0.1599239449E+03     -0.7567122850E+01
          0                 2           3           263   79     1       0.6088536536E+00     374  316    1       0.2627790303E+03      0.1592348438E+04      0.1597256477E+05      0.6088536536E+00
          0                 3           2           457  453     1       0.6044155210E-01     374  316    1       0.1313734471E+02      0.7955221957E+02      0.1592348438E+04      0.6044155210E-01

    ------------------------------------------------
       NWT REQUIRED            3 OUTER ITERATIONS 
       AND A TOTAL OF          8 INNER ITERATIONS.
    ------------------------------------------------

 NO OUTPUT CONTROL FOR STRESS PERIOD   38   TIME STEP    2

 WELLS WITH REDUCED PUMPING FOR STRESS PERIOD    38 TIME STEP     2
   LAY   ROW   COL         APPL.Q          ACT.Q        GW-HEAD       CELL-BOT
     1    77   213  -0.230952E+04  -0.196857E+04   0.157068E+03   0.148000E+03
     1    92    77  -0.230952E+04  -0.678310E+03  -0.843540E+02  -0.930000E+02
     1    94    77  -0.230952E+04  -0.227721E+04  -0.809634E+02  -0.102000E+03
     1    94    73  -0.230952E+04  -0.109132E+04  -0.642787E+02  -0.740000E+02


 SOLVING FOR HEAD 
                                                   Max.-Head-Change                        Max.-Flux-Residual
  Residual-Control   Outer-Iter.   Inner-Iter.     Column Row Layer    Max.-Head-Change    Column Row Layer    Max.-Flux-Residual            L2-New               L2-Old           Solver-Max-Delh
          0                 1           3           263   79     1      -0.3472585588E+01     374  316    1      -0.2348874089E+04      0.1279939153E+05      0.7955221957E+02     -0.3472585588E+01
          0                 2           2           263   79     1       0.2881231950E+00     374  316    1       0.2346811512E+03      0.1281065864E+04      0.1279939153E+05      0.2881231950E+00
          0                 3           2           457  453     1       0.6051979686E-01     374  316    1       0.1173251931E+02      0.6403924643E+02      0.1281065864E+04      0.6051979686E-01

    ------------------------------------------------
       NWT REQUIRED            3 OUTER ITERATIONS 
       AND A TOTAL OF          7 INNER ITERATIONS.
    ------------------------------------------------

 NO OUTPUT CONTROL FOR STRESS PERIOD   38   TIME STEP    3

 WELLS WITH REDUCED PUMPING FOR STRESS PERIOD    38 TIME STEP     3
   LAY   ROW   COL         APPL.Q          ACT.Q        GW-HEAD       CELL-BOT
     1    77   213  -0.230952E+04  -0.189177E+04   0.156720E+03   0.148000E+03
     1    92    77  -0.230952E+04  -0.574327E+03  -0.851580E+02  -0.930000E+02
     1    94    77  -0.230952E+04  -0.224345E+04  -0.816688E+02  -0.102000E+03
     1    94    73  -0.230952E+04  -0.105390E+04  -0.644972E+02  -0.740000E+02


 SOLVING FOR HEAD 
                                                   Max.-Head-Change                        Max.-Flux-Residual
  Residual-Control   Outer-Iter.   Inner-Iter.     Column Row Layer    Max.-Head-Change    Column Row Layer    Max.-Flux-Residual            L2-New               L2-Old           Solver-Max-Delh
          0                 1           3           263   79     1      -0.1821621015E+01     374  316    1      -0.2103996379E+04      0.1132666175E+05      0.6403924643E+02     -0.1821621015E+01
          0                 2           2           263   79     1       0.1537585556E+00     374  316    1       0.2102084434E+03      0.1135642297E+04      0.1132666175E+05      0.1537585556E+00
          0                 3           2           457  453     1       0.6058999320E-01     374  316    1       0.1050900097E+02      0.5678080066E+02      0.1135642297E+04      0.6058999320E-01

    ------------------------------------------------
       NWT REQUIRED            3 OUTER ITERATIONS 
       AND A TOTAL OF          7 INNER ITERATIONS.
    ------------------------------------------------

 NO OUTPUT CONTROL FOR STRESS PERIOD   38   TIME STEP    4

 WELLS WITH REDUCED PUMPING FOR STRESS PERIOD    38 TIME STEP     4
   LAY   ROW   COL         APPL.Q          ACT.Q        GW-HEAD       CELL-BOT
     1    77   213  -0.230952E+04  -0.181684E+04   0.156403E+03   0.148000E+03
     1    92    77  -0.230952E+04  -0.523316E+03  -0.855680E+02  -0.930000E+02
     1    94    77  -0.230952E+04  -0.220012E+04  -0.823573E+02  -0.102000E+03
     1    94    73  -0.230952E+04  -0.101888E+04  -0.647022E+02  -0.740000E+02


 SOLVING FOR HEAD 
                                                   Max.-Head-Change                        Max.-Flux-Residual
  Residual-Control   Outer-Iter.   Inner-Iter.     Column Row Layer    Max.-Head-Change    Column Row Layer    Max.-Flux-Residual            L2-New               L2-Old           Solver-Max-Delh
          0                 1           3           263   78     1      -0.1115714806E+01     378  321    1      -0.1911348368E+04      0.1045368660E+05      0.5678080066E+02     -0.1115714806E+01
          0                 2           2           263   78     1       0.9517469004E-01     378  321    1       0.1909489968E+03      0.1045736949E+04      0.1045368660E+05      0.9517469004E-01

    ------------------------------------------------
       NWT REQUIRED            2 OUTER ITERATIONS 
       AND A TOTAL OF          5 INNER ITERATIONS.
    ------------------------------------------------

 NO OUTPUT CONTROL FOR STRESS PERIOD   38   TIME STEP    5

 WELLS WITH REDUCED PUMPING FOR STRESS PERIOD    38 TIME STEP     5
   LAY   ROW   COL         APPL.Q          ACT.Q        GW-HEAD       CELL-BOT
     1    77   213  -0.230952E+04  -0.174477E+04   0.156112E+03   0.148000E+03
     1    92    77  -0.230952E+04  -0.497504E+03  -0.857802E+02  -0.930000E+02
     1    94    77  -0.230952E+04  -0.214870E+04  -0.830292E+02  -0.102000E+03
     1    94    73  -0.230952E+04  -0.985954E+03  -0.648955E+02  -0.740000E+02


 SOLVING FOR HEAD 
                                                   Max.-Head-Change                        Max.-Flux-Residual
  Residual-Control   Outer-Iter.   Inner-Iter.     Column Row Layer    Max.-Head-Change    Column Row Layer    Max.-Flux-Residual            L2-New               L2-Old           Solver-Max-Delh
          0                 1           3           264   78     1      -0.9209915625E+00      77   94    1      -0.1760416646E+04      0.9862134543E+04      0.5228878400E+02     -0.9209915625E+00
          0                 2           2           264   78     1       0.7835470830E-01      77   94    1       0.1804847002E+03      0.9866182572E+03      0.9862134543E+04      0.7835470830E-01

    ------------------------------------------------
       NWT REQUIRED            2 OUTER ITERATIONS 
       AND A TOTAL OF          5 INNER ITERATIONS.
    ------------------------------------------------

 NO OUTPUT CONTROL FOR STRESS PERIOD   38   TIME STEP    6

 WELLS WITH REDUCED PUMPING FOR STRESS PERIOD    38 TIME STEP     6
   LAY   ROW   COL         APPL.Q          ACT.Q        GW-HEAD       CELL-BOT
     1    77   213  -0.230952E+04  -0.167684E+04   0.155847E+03   0.148000E+03
     1    92    77  -0.230952E+04  -0.484343E+03  -0.858898E+02  -0.930000E+02
     1    94    77  -0.230952E+04  -0.209112E+04  -0.836786E+02  -0.102000E+03
     1    94    73  -0.230952E+04  -0.955169E+03  -0.650770E+02  -0.740000E+02


 SOLVING FOR HEAD 
                                                   Max.-Head-Change                        Max.-Flux-Residual
  Residual-Control   Outer-Iter.   Inner-Iter.     Column Row Layer    Max.-Head-Change    Column Row Layer    Max.-Flux-Residual            L2-New               L2-Old           Solver-Max-Delh
          0                 1           3           264   78     1      -0.7831840722E+00      77   94    1      -0.1701622271E+04      0.9430476618E+04      0.4959082645E+02     -0.7831840722E+00
          0                 2           2           197   79     1      -0.8857490303E-01      77   94    1       0.1739185145E+03      0.9502409412E+03      0.9430476618E+04     -0.8857490303E-01

    ------------------------------------------------
       NWT REQUIRED            2 OUTER ITERATIONS 
       AND A TOTAL OF          5 INNER ITERATIONS.
    ------------------------------------------------

 NO OUTPUT CONTROL FOR STRESS PERIOD   38   TIME STEP    7

 WELLS WITH REDUCED PUMPING FOR STRESS PERIOD    38 TIME STEP     7
   LAY   ROW   COL         APPL.Q          ACT.Q        GW-HEAD       CELL-BOT
     1    77   213  -0.230952E+04  -0.161352E+04   0.155608E+03   0.148000E+03
     1    92    77  -0.230952E+04  -0.477568E+03  -0.859466E+02  -0.930000E+02
     1    94    77  -0.230952E+04  -0.202898E+04  -0.843039E+02  -0.102000E+03
     1    94    73  -0.230952E+04  -0.926388E+03  -0.652472E+02  -0.740000E+02


 SOLVING FOR HEAD 
                                                   Max.-Head-Change                        Max.-Flux-Residual
  Residual-Control   Outer-Iter.   Inner-Iter.     Column Row Layer    Max.-Head-Change    Column Row Layer    Max.-Flux-Residual            L2-New               L2-Old           Solver-Max-Delh
          0                 1           3           264   78     1      -0.6701809779E+00      77   94    1      -0.1638317184E+04      0.9097656173E+04      0.4788589236E+02     -0.6701809779E+00
          0                 2           2           457  453     1       0.6178033892E-01      77   94    1       0.1669693882E+03      0.9147284105E+03      0.9097656173E+04      0.6178033892E-01

    ------------------------------------------------
       NWT REQUIRED            2 OUTER ITERATIONS 
       AND A TOTAL OF          5 INNER ITERATIONS.
    ------------------------------------------------

 NO OUTPUT CONTROL FOR STRESS PERIOD   38   TIME STEP    8

 WELLS WITH REDUCED PUMPING FOR STRESS PERIOD    38 TIME STEP     8
   LAY   ROW   COL         APPL.Q          ACT.Q        GW-HEAD       CELL-BOT
     1    77   213  -0.230952E+04  -0.155499E+04   0.155392E+03   0.148000E+03
     1    92    77  -0.230952E+04  -0.474060E+03  -0.859761E+02  -0.930000E+02
     1    94    77  -0.230952E+04  -0.196373E+04  -0.849039E+02  -0.102000E+03
     1    94    73  -0.230952E+04  -0.899484E+03  -0.654071E+02  -0.740000E+02


 SOLVING FOR HEAD 
                                                   Max.-Head-Change                        Max.-Flux-Residual
  Residual-Control   Outer-Iter.   Inner-Iter.     Column Row Layer    Max.-Head-Change    Column Row Layer    Max.-Flux-Residual            L2-New               L2-Old           Solver-Max-Delh
          0                 1           3            77   94     1      -0.6290640059E+00      77   94    1      -0.1571949856E+04      0.8830848621E+04      0.4573857951E+02     -0.6290640059E+00
          0                 2           2           457  453     1       0.6206748163E-01      77   94    1       0.1597856073E+03      0.8833570278E+03      0.8830848621E+04      0.6206748163E-01

    ------------------------------------------------
       NWT REQUIRED            2 OUTER ITERATIONS 
       AND A TOTAL OF          5 INNER ITERATIONS.
    ------------------------------------------------

 NO OUTPUT CONTROL FOR STRESS PERIOD   38   TIME STEP    9

 WELLS WITH REDUCED PUMPING FOR STRESS PERIOD    38 TIME STEP     9
   LAY   ROW   COL         APPL.Q          ACT.Q        GW-HEAD       CELL-BOT
     1    77   213  -0.230952E+04  -0.150126E+04   0.155197E+03   0.148000E+03
     1    92    77  -0.230952E+04  -0.472233E+03  -0.859915E+02  -0.930000E+02
     1    94    77  -0.230952E+04  -0.189662E+04  -0.854779E+02  -0.102000E+03
     1    94    73  -0.230952E+04  -0.874332E+03  -0.655573E+02  -0.740000E+02


 SOLVING FOR HEAD 
                                                   Max.-Head-Change                        Max.-Flux-Residual
  Residual-Control   Outer-Iter.   Inner-Iter.     Column Row Layer    Max.-Head-Change    Column Row Layer    Max.-Flux-Residual            L2-New               L2-Old           Solver-Max-Delh
          0                 1           3            77   94     1      -0.6001549212E+00      77   94    1      -0.1503787570E+04      0.8611234276E+04      0.4416971401E+02     -0.6001549212E+00
          0                 2           2           457  453     1       0.6234946807E-01      77   94    1       0.1524933050E+03      0.8613935269E+03      0.8611234276E+04      0.6234946807E-01

    ------------------------------------------------
       NWT REQUIRED            2 OUTER ITERATIONS 
       AND A TOTAL OF          5 INNER ITERATIONS.
    ------------------------------------------------

 OUTPUT CONTROL FOR STRESS PERIOD   38   TIME STEP   10
    SAVE HEAD FOR ALL LAYERS

 WELLS WITH REDUCED PUMPING FOR STRESS PERIOD    38 TIME STEP    10
   LAY   ROW   COL         APPL.Q          ACT.Q        GW-HEAD       CELL-BOT
     1    77   213  -0.230952E+04  -0.145218E+04   0.155021E+03   0.148000E+03
     1    92    77  -0.230952E+04  -0.471275E+03  -0.859996E+02  -0.930000E+02
     1    94    77  -0.230952E+04  -0.182875E+04  -0.860257E+02  -0.102000E+03
     1    94    73  -0.230952E+04  -0.850816E+03  -0.656984E+02  -0.740000E+02


 HEAD WILL BE SAVED ON UNIT   51 AT END OF TIME STEP   10, STRESS PERIOD   38
1
  VOLUMETRIC BUDGET FOR ENTIRE MODEL AT END OF TIME STEP   10, STRESS PERIOD  38
  ------------------------------------------------------------------------------

     CUMULATIVE VOLUMES      L**3       RATES FOR THIS TIME STEP      L**3/T
     ------------------                 ------------------------

           IN:                                      IN:
           ---                                      ---
             STORAGE =   427577504.0000               STORAGE =      416864.7188
       CONSTANT HEAD =    57851852.0000         CONSTANT HEAD =       51828.1367
               WELLS =           0.0000                 WELLS =           0.0000
              DRAINS =           0.0000                DRAINS =           0.0000
                  ET =           0.0000                    ET =           0.0000
            RECHARGE =   211071216.0000              RECHARGE =      165089.2500

            TOTAL IN =   696500544.0000              TOTAL IN =      633782.1250

          OUT:                                     OUT:
          ----                                     ----
             STORAGE =   147512112.0000               STORAGE =       14966.4414
       CONSTANT HEAD =           0.0000         CONSTANT HEAD =           0.0000
               WELLS =   364318432.0000                 WELLS =      462444.9375
              DRAINS =   128612984.0000                DRAINS =      111660.8047
                  ET =    55185324.0000                    ET =       42704.8633
            RECHARGE =       81860.0000              RECHARGE =           0.0000

           TOTAL OUT =   695710720.0000             TOTAL OUT =      631777.0625

            IN - OUT =      789824.0000              IN - OUT =        2005.0625

 PERCENT DISCREPANCY =           0.11     PERCENT DISCREPANCY =           0.32






         TIME SUMMARY AT END OF TIME STEP   10 IN STRESS PERIOD   38
                    SECONDS     MINUTES      HOURS       DAYS        YEARS
                    -----------------------------------------------------------
   TIME STEP LENGTH 2.62656E+05  4377.6      72.960      3.0400     8.32307E-03
 STRESS PERIOD TIME 2.62656E+06  43776.      729.60      30.400     8.32307E-02
         TOTAL TIME 9.98092E+07 1.66349E+06  27725.      1155.2      3.1628    
1
1
                            STRESS PERIOD NO.   39, LENGTH =   30.40000    
                            -----------------------------------------------

                              NUMBER OF TIME STEPS =    10

                               MULTIPLIER FOR DELT =     1.000

                            INITIAL TIME STEP SIZE =   3.040000    

 WELL NO.  LAYER   ROW   COL   STRESS RATE         
 --------------------------------------------------
      1      1     69    225      -3283.    
      2      1     71    224       0.000    
      3      1     74    220       0.000    
      4      1     73    220       0.000    
      5      1     71    223       0.000    
      6      1     71    223       0.000    
      7      1     72    223       0.000    
      8      1     92    173       0.000    
      9      1     94    174       0.000    
     10      1     93    175       0.000    
     11      1    203    328       0.000    
     12      1    438    460      -2309.    
     13      1    436    461      -2309.    
     14      1    410    454      -2309.    
     15      1    433    460      -2309.    
     16      1    431    462      -2309.    
     17      1    417    459      -2309.    
     18      1    418    458      -2309.    
     19      1    414    455      -2309.    
     20      1    443    464      -2309.    
     21      1    379    425      -2309.    
     22      1    362    405      -2309.    
     23      1    361    405      -2309.    
     24      1    362    406      -2309.    
     25      1    363    408      -2309.    
     26      1    364    410      -2309.    
     27      1    369    418      -2309.    
     28      1    367    417      -2309.    
     29      1    365    415      -2309.    
     30      1    402    447      -2309.    
     31      1    400    446      -2309.    
     32      1    392    444      -2309.    
     33      1    391    441      -2309.    
     34      1    403    448      -2309.    
     35      1    405    447      -2309.    
     36      1    362    410      -2309.    
     37      1    362    411      -2309.    
     38      1    363    412      -2309.    
     39      1    375    421      -2309.    
     40      1    383    430      -2309.    
     41      1    397    445      -2309.    
     42      1    360    403      -2309.    
     43      1    350    401      -2309.    
     44      1    346    393      -2930.    
     45      1    333    387      -2930.    
     46      1    328    384      -2930.    
     47      1    326    383      -2930.    
     48      1    323    378      -2930.    
     49      1    321    378      -2930.    
     50      1    322    376      -2930.    
     51      1    316    374      -2930.    
     52      1    311    371      -2930.    
     53      1    307    369      -2930.    
     54      1    305    368      -2930.    
     55      1    303    368      -2930.    
     56      1    300    369      -2930.    
     57      1    293    364      -2930.    
     58      1    292    362      -2930.    
     59      1    278    350      -2930.    
     60      1    274    351      -2930.    
     61      1    273    350      -2930.    
     62      1    271    350      -2930.    
     63      1    267    348      -2930.    
     64      1    263    348      -2930.    
     65      1    263    348      -2930.    
     66      1    248    347      -2930.    
     67      1    243    342      -2930.    
     68      1    242    339      -2930.    
     69      1    238    341      -2930.    
     70      1    233    340      -2930.    
     71      1    232    340      -2930.    
     72      1    229    341      -2930.    
     73      1    227    341      -2930.    
     74      1    219    342      -2930.    
     75      1    219    336      -2930.    
     76      1    199    329      -2930.    
     77      1    191    332      -3678.    
     78      1    190    332      -3678.    
     79      1    130    310      -3678.    
     80      1    123    305      -3678.    
     81      1    104    289      -3678.    
     82      1     96    287      -3788.    
     83      1     95    284      -3788.    
     84      1     95    280      -3788.    
     85      1     93    276      -3788.    
     86      1     94    275      -3788.    
     87      1     90    277      -3788.    
     88      1     90    273      -3788.    
     89      1     86    271      -3788.    
     90      1     85    270      -3788.    
     91      1     84    265      -3788.    
     92      1     85    265      -3788.    
     93      1     84    264      -3788.    
     94      1     79    263      -3788.    
     95      1     79    263      -3788.    
     96      1     76    262      -3788.    
     97      1     73    257      -3788.    
     98      1     74    255      -3788.    
     99      1     71    255      -3788.    
    100      1     66    253      -3788.    
    101      1     68    252      -3788.    
    102      1     69    250      -3788.    
    103      1     65    248      -3788.    
    104      1     68    248      -3788.    
    105      1     69    247      -3788.    
    106      1     73    247      -3788.    
    107      1     64    246      -3788.    
    108      1     69    245      -3788.    
    109      1     72    245      -3788.    
    110      1     69    241      -3788.    
    111      1     73    238      -3788.    
    112      1     70    238      -3788.    
    113      1     76    263      -3788.    
    114      1     66    232      -2343.    
    115      1     69    229      -2343.    
    116      1     71    228      -2343.    
    117      1     69    227      -2343.    
    118      1     72    219      -2343.    
    119      1     72    218      -2343.    
    120      1     72    218      -2343.    
    121      1     73    217      -2343.    
    122      1     77    219      -2343.    
    123      1     78    219      -2343.    
    124      1     83    213      -2343.    
    125      1     77    213      -2343.    
    126      1     81    211      -2343.    
    127      1     81    210      -2343.    
    128      1     81    210      -2343.    
    129      1     82    208      -2343.    
    130      1     80    205      -2343.    
    131      1     86    202      -2343.    
    132      1     84    200      -2343.    
    133      1     89    200      -2343.    
    134      1     89    199      -2343.    
    135      1     88    199      -2343.    
    136      1     86    199      -2343.    
    137      1     85    199      -2343.    
    138      1     82    197      -2343.    
    139      1     86    197      -2343.    
    140      1     88    198      -2343.    
    141      1     90    192      -2343.    
    142      1     89    191      -2343.    
    143      1     84    192      -2343.    
    144      1     91    189      -2343.    
    145      1     92    185      -2343.    
    146      1     87    183      -2343.    
    147      1     92    182      -2343.    
    148      1     90    182      -2343.    
    149      1     88    179      -2343.    
    150      1     89    176      -2343.    
    151      1     92    172      -2343.    
    152      1     93    164      -2343.    
    153      1     94    162      -2343.    
    154      1    103    156      -2343.    
    155      1    103    156      -2343.    
    156      1     96    154      -2343.    
    157      1     97    153      -2343.    
    158      1    122    139      -2343.    
    159      1     92     77      -2343.    
    160      1     94     77      -2343.    
    161      1     94     73      -2343.    
    162      1     97    152      -2343.    
    163      1    118    337      -666.7    
    164      1    133    319      -2678.    
    165      1    131    320      -3951.    
    166      1    133    321      -2956.    
    167      1    161    329      -2141.    
    168      1    178    330      -551.0    
    169      1    163    330      -1122.    
    170      1    131    320      -2473.    
    171      1    129    315      -3937.    
    172      1    162    329      -1959.    
    173      1    131    311      -826.1    
    174      1    221    340      -1994.    
    175      1    220    340      -1034.    
    176      1    221    340      -667.7    
    177      1    137    322      -2082.    
    178      1    137    321      -1407.    
    179      1    185    329      -2012.    
    180      1    183    329      -1473.    
    181      1    175    329      -585.3    
    182      1     79    243      -1490.    
    183      1     77    245      -2414.    
    184      1    199    329      -1617.    
    185      1    198    330      -2514.    
    186      1    140    328      -972.1    
    187      1    143    327      -863.6    
    188      1    139    327      -1331.    

    188 WELLS

 REUSING NON-PARAMETER DRAINS FROM LAST STRESS PERIOD

   1061 DRAINS

 REUSING SURF FROM LAST STRESS PERIOD

 REUSING EVTR FROM LAST STRESS PERIOD

 REUSING EXDP FROM LAST STRESS PERIOD



                           RECHARGE
 READING ON UNIT   19 WITH FORMAT: (510E15.6)          

 SOLVING FOR HEAD 
                                                   Max.-Head-Change                        Max.-Flux-Residual
  Residual-Control   Outer-Iter.   Inner-Iter.     Column Row Layer    Max.-Head-Change    Column Row Layer    Max.-Flux-Residual            L2-New               L2-Old           Solver-Max-Delh
          0                 1           3           263   79     1       0.2669873638E+01      77   94    1      -0.1461259412E+04      0.9206989450E+04      0.4307104233E+02      0.2669873638E+01
          0                 2           2           263   79     1      -0.2315064974E+00      77   94    1       0.1479179822E+03      0.9204445435E+03      0.9206989450E+04     -0.2315064974E+00
          0                 3           2           457  453     1       0.6235896955E-01      77   94    1       0.7408372960E+01      0.4602041284E+02      0.9204445435E+03      0.6235896955E-01

    ------------------------------------------------
       NWT REQUIRED            3 OUTER ITERATIONS 
       AND A TOTAL OF          7 INNER ITERATIONS.
    ------------------------------------------------

 NO OUTPUT CONTROL FOR STRESS PERIOD   39   TIME STEP    1

 WELLS WITH REDUCED PUMPING FOR STRESS PERIOD    39 TIME STEP     1
   LAY   ROW   COL         APPL.Q          ACT.Q        GW-HEAD       CELL-BOT
     1    77   213  -0.234339E+04  -0.142640E+04   0.154857E+03   0.148000E+03
     1    92    77  -0.234339E+04  -0.474652E+03  -0.860290E+02  -0.930000E+02
     1    94    77  -0.234339E+04  -0.178593E+04  -0.865538E+02  -0.102000E+03
     1    94    73  -0.234339E+04  -0.840382E+03  -0.658346E+02  -0.740000E+02


 SOLVING FOR HEAD 
                                                   Max.-Head-Change                        Max.-Flux-Residual
  Residual-Control   Outer-Iter.   Inner-Iter.     Column Row Layer    Max.-Head-Change    Column Row Layer    Max.-Flux-Residual            L2-New               L2-Old           Solver-Max-Delh
          0                 1           3           263   79     1       0.9407778691E+00      77   94    1      -0.1390658254E+04      0.6779134666E+04      0.4602041284E+02      0.9407778691E+00
          0                 2           2           263   79     1      -0.8110475564E-01      77   94    1       0.1404902474E+03      0.6776821743E+03      0.6779134666E+04     -0.8110475564E-01

    ------------------------------------------------
       NWT REQUIRED            2 OUTER ITERATIONS 
       AND A TOTAL OF          5 INNER ITERATIONS.
    ------------------------------------------------

 NO OUTPUT CONTROL FOR STRESS PERIOD   39   TIME STEP    2

 WELLS WITH REDUCED PUMPING FOR STRESS PERIOD    39 TIME STEP     2
   LAY   ROW   COL         APPL.Q          ACT.Q        GW-HEAD       CELL-BOT
     1    77   213  -0.234339E+04  -0.138350E+04   0.154708E+03   0.148000E+03
     1    92    77  -0.234339E+04  -0.472806E+03  -0.860444E+02  -0.930000E+02
     1    94    77  -0.234339E+04  -0.171684E+04  -0.870580E+02  -0.102000E+03
     1    94    73  -0.234339E+04  -0.818867E+03  -0.659631E+02  -0.740000E+02


 SOLVING FOR HEAD 
                                                   Max.-Head-Change                        Max.-Flux-Residual
  Residual-Control   Outer-Iter.   Inner-Iter.     Column Row Layer    Max.-Head-Change    Column Row Layer    Max.-Flux-Residual            L2-New               L2-Old           Solver-Max-Delh
          0                 1           3            77   94     1      -0.5235520482E+00      77   94    1      -0.1320655692E+04      0.6320124853E+04      0.3388479944E+02     -0.5235520482E+00
          0                 2           2           457  453     1       0.6288899255E-01      77   94    1       0.1331811330E+03      0.6363923870E+03      0.6320124853E+04      0.6288899255E-01

    ------------------------------------------------
       NWT REQUIRED            2 OUTER ITERATIONS 
       AND A TOTAL OF          5 INNER ITERATIONS.
    ------------------------------------------------

 NO OUTPUT CONTROL FOR STRESS PERIOD   39   TIME STEP    3

 WELLS WITH REDUCED PUMPING FOR STRESS PERIOD    39 TIME STEP     3
   LAY   ROW   COL         APPL.Q          ACT.Q        GW-HEAD       CELL-BOT
     1    77   213  -0.234339E+04  -0.134472E+04   0.154575E+03   0.148000E+03
     1    92    77  -0.234339E+04  -0.471843E+03  -0.860525E+02  -0.930000E+02
     1    94    77  -0.234339E+04  -0.164925E+04  -0.875360E+02  -0.102000E+03
     1    94    73  -0.234339E+04  -0.798755E+03  -0.660839E+02  -0.740000E+02


 SOLVING FOR HEAD 
                                                   Max.-Head-Change                        Max.-Flux-Residual
  Residual-Control   Outer-Iter.   Inner-Iter.     Column Row Layer    Max.-Head-Change    Column Row Layer    Max.-Flux-Residual            L2-New               L2-Old           Solver-Max-Delh
          0                 1           3            77   94     1      -0.4957272594E+00      77   94    1      -0.1252209266E+04      0.6117062983E+04      0.3182020649E+02     -0.4957272594E+00
          0                 2           2           457  453     1       0.6314682682E-01      77   94    1       0.1260810883E+03      0.6118358268E+03      0.6117062983E+04      0.6314682682E-01

    ------------------------------------------------
       NWT REQUIRED            2 OUTER ITERATIONS 
       AND A TOTAL OF          5 INNER ITERATIONS.
    ------------------------------------------------

 NO OUTPUT CONTROL FOR STRESS PERIOD   39   TIME STEP    4

 WELLS WITH REDUCED PUMPING FOR STRESS PERIOD    39 TIME STEP     4
   LAY   ROW   COL         APPL.Q          ACT.Q        GW-HEAD       CELL-BOT
     1    77   213  -0.234339E+04  -0.130971E+04   0.154455E+03   0.148000E+03
     1    92    77  -0.234339E+04  -0.471335E+03  -0.860567E+02  -0.930000E+02
     1    94    77  -0.234339E+04  -0.158363E+04  -0.879887E+02  -0.102000E+03
     1    94    73  -0.234339E+04  -0.779951E+03  -0.661974E+02  -0.740000E+02


 SOLVING FOR HEAD 
                                                   Max.-Head-Change                        Max.-Flux-Residual
  Residual-Control   Outer-Iter.   Inner-Iter.     Column Row Layer    Max.-Head-Change    Column Row Layer    Max.-Flux-Residual            L2-New               L2-Old           Solver-Max-Delh
          0                 1           3            77   94     1      -0.4688984512E+00      77   94    1      -0.1185780316E+04      0.5996843594E+04      0.3059242532E+02     -0.4688984512E+00
          0                 2           2           457  453     1       0.6339816137E-01      77   94    1       0.1192290559E+03      0.5998955206E+03      0.5996843594E+04      0.6339816137E-01

    ------------------------------------------------
       NWT REQUIRED            2 OUTER ITERATIONS 
       AND A TOTAL OF          5 INNER ITERATIONS.
    ------------------------------------------------

 NO OUTPUT CONTROL FOR STRESS PERIOD   39   TIME STEP    5

 WELLS WITH REDUCED PUMPING FOR STRESS PERIOD    39 TIME STEP     5
   LAY   ROW   COL         APPL.Q          ACT.Q        GW-HEAD       CELL-BOT
     1    77   213  -0.234339E+04  -0.127814E+04   0.154346E+03   0.148000E+03
     1    92    77  -0.234339E+04  -0.471062E+03  -0.860590E+02  -0.930000E+02
     1    94    77  -0.234339E+04  -0.152031E+04  -0.884169E+02  -0.102000E+03
     1    94    73  -0.234339E+04  -0.762362E+03  -0.663041E+02  -0.740000E+02


 SOLVING FOR HEAD 
                                                   Max.-Head-Change                        Max.-Flux-Residual
  Residual-Control   Outer-Iter.   Inner-Iter.     Column Row Layer    Max.-Head-Change    Column Row Layer    Max.-Flux-Residual            L2-New               L2-Old           Solver-Max-Delh
          0                 1           3            77   94     1      -0.4431600737E+00      77   94    1      -0.1121704678E+04      0.5912492301E+04      0.2999690253E+02     -0.4431600737E+00
          0                 2           2           457  453     1       0.6364269297E-01      77   94    1       0.1126518359E+03      0.5913067660E+03      0.5912492301E+04      0.6364269297E-01

    ------------------------------------------------
       NWT REQUIRED            2 OUTER ITERATIONS 
       AND A TOTAL OF          5 INNER ITERATIONS.
    ------------------------------------------------

 NO OUTPUT CONTROL FOR STRESS PERIOD   39   TIME STEP    6

 WELLS WITH REDUCED PUMPING FOR STRESS PERIOD    39 TIME STEP     6
   LAY   ROW   COL         APPL.Q          ACT.Q        GW-HEAD       CELL-BOT
     1    77   213  -0.234339E+04  -0.124969E+04   0.154249E+03   0.148000E+03
     1    92    77  -0.234339E+04  -0.470908E+03  -0.860603E+02  -0.930000E+02
     1    94    77  -0.234339E+04  -0.145952E+04  -0.888216E+02  -0.102000E+03
     1    94    73  -0.234339E+04  -0.745904E+03  -0.664045E+02  -0.740000E+02


 SOLVING FOR HEAD 
                                                   Max.-Head-Change                        Max.-Flux-Residual
  Residual-Control   Outer-Iter.   Inner-Iter.     Column Row Layer    Max.-Head-Change    Column Row Layer    Max.-Flux-Residual            L2-New               L2-Old           Solver-Max-Delh
          0                 1           3            77   94     1      -0.4185706733E+00      77   94    1      -0.1060213055E+04      0.5846628552E+04      0.2956557837E+02     -0.4185706733E+00
          0                 2           2           457  453     1       0.6388011957E-01      77   94    1       0.1063663093E+03      0.5850411581E+03      0.5846628552E+04      0.6388011957E-01

    ------------------------------------------------
       NWT REQUIRED            2 OUTER ITERATIONS 
       AND A TOTAL OF          5 INNER ITERATIONS.
    ------------------------------------------------

 NO OUTPUT CONTROL FOR STRESS PERIOD   39   TIME STEP    7

 WELLS WITH REDUCED PUMPING FOR STRESS PERIOD    39 TIME STEP     7
   LAY   ROW   COL         APPL.Q          ACT.Q        GW-HEAD       CELL-BOT
     1    77   213  -0.234339E+04  -0.122406E+04   0.154162E+03   0.148000E+03
     1    92    77  -0.234339E+04  -0.470816E+03  -0.860610E+02  -0.930000E+02
     1    94    77  -0.234339E+04  -0.140142E+04  -0.892040E+02  -0.102000E+03
     1    94    73  -0.234339E+04  -0.730497E+03  -0.664990E+02  -0.740000E+02


 SOLVING FOR HEAD 
                                                   Max.-Head-Change                        Max.-Flux-Residual
  Residual-Control   Outer-Iter.   Inner-Iter.     Column Row Layer    Max.-Head-Change    Column Row Layer    Max.-Flux-Residual            L2-New               L2-Old           Solver-Max-Delh
          0                 1           3            77   94     1      -0.3951599149E+00      77   94    1      -0.1001449810E+04      0.5792972265E+04      0.2925207037E+02     -0.3951599149E+00
          0                 2           2           457  453     1       0.6411014030E-01      77   94    1       0.1003814047E+03      0.5792880880E+03      0.5792972265E+04      0.6411014030E-01

    ------------------------------------------------
       NWT REQUIRED            2 OUTER ITERATIONS 
       AND A TOTAL OF          5 INNER ITERATIONS.
    ------------------------------------------------

 NO OUTPUT CONTROL FOR STRESS PERIOD   39   TIME STEP    8

 WELLS WITH REDUCED PUMPING FOR STRESS PERIOD    39 TIME STEP     8
   LAY   ROW   COL         APPL.Q          ACT.Q        GW-HEAD       CELL-BOT
     1    77   213  -0.234339E+04  -0.120097E+04   0.154083E+03   0.148000E+03
     1    92    77  -0.234339E+04  -0.470754E+03  -0.860616E+02  -0.930000E+02
     1    94    77  -0.234339E+04  -0.134608E+04  -0.895649E+02  -0.102000E+03
     1    94    73  -0.234339E+04  -0.716068E+03  -0.665879E+02  -0.740000E+02


 SOLVING FOR HEAD 
                                                   Max.-Head-Change                        Max.-Flux-Residual
  Residual-Control   Outer-Iter.   Inner-Iter.     Column Row Layer    Max.-Head-Change    Column Row Layer    Max.-Flux-Residual            L2-New               L2-Old           Solver-Max-Delh
          0                 1           3            77   94     1      -0.3729346328E+00      77   94    1      -0.9454896207E+03      0.5747165602E+04      0.2896437010E+02     -0.3729346328E+00
          0                 2           2           457  453     1       0.6433245633E-01      77   94    1       0.9469978380E+02      0.5747438300E+03      0.5747165602E+04      0.6433245633E-01

    ------------------------------------------------
       NWT REQUIRED            2 OUTER ITERATIONS 
       AND A TOTAL OF          5 INNER ITERATIONS.
    ------------------------------------------------

 NO OUTPUT CONTROL FOR STRESS PERIOD   39   TIME STEP    9

 WELLS WITH REDUCED PUMPING FOR STRESS PERIOD    39 TIME STEP     9
   LAY   ROW   COL         APPL.Q          ACT.Q        GW-HEAD       CELL-BOT
     1    77   213  -0.234339E+04  -0.118016E+04   0.154012E+03   0.148000E+03
     1    92    77  -0.234339E+04  -0.470708E+03  -0.860619E+02  -0.930000E+02
     1    94    77  -0.234339E+04  -0.129352E+04  -0.899056E+02  -0.102000E+03
     1    94    73  -0.234339E+04  -0.702550E+03  -0.666716E+02  -0.740000E+02


 SOLVING FOR HEAD 
                                                   Max.-Head-Change                        Max.-Flux-Residual
  Residual-Control   Outer-Iter.   Inner-Iter.     Column Row Layer    Max.-Head-Change    Column Row Layer    Max.-Flux-Residual            L2-New               L2-Old           Solver-Max-Delh
          0                 1           3            77   94     1      -0.3518839983E+00      77   94    1      -0.8923520359E+03      0.5706703328E+04      0.2873706825E+02     -0.3518839983E+00
          0                 2           2           457  453     1       0.6454676980E-01      77   94    1       0.8931927194E+02      0.5706719764E+03      0.5706703328E+04      0.6454676980E-01

    ------------------------------------------------
       NWT REQUIRED            2 OUTER ITERATIONS 
       AND A TOTAL OF          5 INNER ITERATIONS.
    ------------------------------------------------

 OUTPUT CONTROL FOR STRESS PERIOD   39   TIME STEP   10
    SAVE HEAD FOR ALL LAYERS

 WELLS WITH REDUCED PUMPING FOR STRESS PERIOD    39 TIME STEP    10
   LAY   ROW   COL         APPL.Q          ACT.Q        GW-HEAD       CELL-BOT
     1    77   213  -0.234339E+04  -0.116141E+04   0.153949E+03   0.148000E+03
     1    92    77  -0.234339E+04  -0.470668E+03  -0.860623E+02  -0.930000E+02
     1    94    77  -0.234339E+04  -0.124371E+04  -0.902271E+02  -0.102000E+03
     1    94    73  -0.234339E+04  -0.689879E+03  -0.667504E+02  -0.740000E+02


 HEAD WILL BE SAVED ON UNIT   51 AT END OF TIME STEP   10, STRESS PERIOD   39
1
  VOLUMETRIC BUDGET FOR ENTIRE MODEL AT END OF TIME STEP   10, STRESS PERIOD  39
  ------------------------------------------------------------------------------

     CUMULATIVE VOLUMES      L**3       RATES FOR THIS TIME STEP      L**3/T
     ------------------                 ------------------------

           IN:                                      IN:
           ---                                      ---
             STORAGE =   437631424.0000               STORAGE =      325609.4375
       CONSTANT HEAD =    59427828.0000         CONSTANT HEAD =       51851.7617
               WELLS =           0.0000                 WELLS =           0.0000
              DRAINS =           0.0000                DRAINS =           0.0000
                  ET =           0.0000                    ET =           0.0000
            RECHARGE =   217101136.0000              RECHARGE =      198354.9375

            TOTAL IN =   714160384.0000              TOTAL IN =      575816.1250

          OUT:                                     OUT:
          ----                                     ----
             STORAGE =   147991984.0000               STORAGE =       13554.8955
       CONSTANT HEAD =           0.0000         CONSTANT HEAD =           0.0000
               WELLS =   376876736.0000                 WELLS =      412661.7812
              DRAINS =   131918416.0000                DRAINS =      106725.4062
                  ET =    56458388.0000                    ET =       41318.8477
            RECHARGE =       81860.0000              RECHARGE =           0.0000

           TOTAL OUT =   713327360.0000             TOTAL OUT =      574261.0000

            IN - OUT =      833024.0000              IN - OUT =        1555.1250

 PERCENT DISCREPANCY =           0.12     PERCENT DISCREPANCY =           0.27






         TIME SUMMARY AT END OF TIME STEP   10 IN STRESS PERIOD   39
                    SECONDS     MINUTES      HOURS       DAYS        YEARS
                    -----------------------------------------------------------
   TIME STEP LENGTH 2.62656E+05  4377.6      72.960      3.0400     8.32307E-03
 STRESS PERIOD TIME 2.62656E+06  43776.      729.60      30.400     8.32307E-02
         TOTAL TIME 1.02436E+08 1.70726E+06  28454.      1185.6      3.2460    
1
1
                            STRESS PERIOD NO.   40, LENGTH =   30.40000    
                            -----------------------------------------------

                              NUMBER OF TIME STEPS =    10

                               MULTIPLIER FOR DELT =     1.000

                            INITIAL TIME STEP SIZE =   3.040000    

 WELL NO.  LAYER   ROW   COL   STRESS RATE         
 --------------------------------------------------
      1      1     69    225      -3370.    
      2      1     71    224       0.000    
      3      1     74    220       0.000    
      4      1     73    220       0.000    
      5      1     71    223       0.000    
      6      1     71    223       0.000    
      7      1     72    223       0.000    
      8      1     92    173       0.000    
      9      1     94    174       0.000    
     10      1     93    175       0.000    
     11      1    203    328       0.000    
     12      1    438    460      -0.000    
     13      1    436    461      -0.000    
     14      1    410    454      -0.000    
     15      1    433    460      -0.000    
     16      1    431    462      -0.000    
     17      1    417    459      -0.000    
     18      1    418    458      -0.000    
     19      1    414    455      -0.000    
     20      1    443    464      -0.000    
     21      1    379    425      -0.000    
     22      1    362    405      -0.000    
     23      1    361    405      -0.000    
     24      1    362    406      -0.000    
     25      1    363    408      -0.000    
     26      1    364    410      -0.000    
     27      1    369    418      -0.000    
     28      1    367    417      -0.000    
     29      1    365    415      -0.000    
     30      1    402    447      -0.000    
     31      1    400    446      -0.000    
     32      1    392    444      -0.000    
     33      1    391    441      -0.000    
     34      1    403    448      -0.000    
     35      1    405    447      -0.000    
     36      1    362    410      -0.000    
     37      1    362    411      -0.000    
     38      1    363    412      -0.000    
     39      1    375    421      -0.000    
     40      1    383    430      -0.000    
     41      1    397    445      -0.000    
     42      1    360    403      -0.000    
     43      1    350    401      -0.000    
     44      1    346    393      -49.88    
     45      1    333    387      -49.88    
     46      1    328    384      -49.88    
     47      1    326    383      -49.88    
     48      1    323    378      -49.88    
     49      1    321    378      -49.88    
     50      1    322    376      -49.88    
     51      1    316    374      -49.88    
     52      1    311    371      -49.88    
     53      1    307    369      -49.88    
     54      1    305    368      -49.88    
     55      1    303    368      -49.88    
     56      1    300    369      -49.88    
     57      1    293    364      -49.88    
     58      1    292    362      -49.88    
     59      1    278    350      -49.88    
     60      1    274    351      -49.88    
     61      1    273    350      -49.88    
     62      1    271    350      -49.88    
     63      1    267    348      -49.88    
     64      1    263    348      -49.88    
     65      1    263    348      -49.88    
     66      1    248    347      -49.88    
     67      1    243    342      -49.88    
     68      1    242    339      -49.88    
     69      1    238    341      -49.88    
     70      1    233    340      -49.88    
     71      1    232    340      -49.88    
     72      1    229    341      -49.88    
     73      1    227    341      -49.88    
     74      1    219    342      -49.88    
     75      1    219    336      -49.88    
     76      1    199    329      -49.88    
     77      1    191    332      -0.000    
     78      1    190    332      -0.000    
     79      1    130    310      -0.000    
     80      1    123    305      -0.000    
     81      1    104    289      -0.000    
     82      1     96    287      -510.6    
     83      1     95    284      -510.6    
     84      1     95    280      -510.6    
     85      1     93    276      -510.6    
     86      1     94    275      -510.6    
     87      1     90    277      -510.6    
     88      1     90    273      -510.6    
     89      1     86    271      -510.6    
     90      1     85    270      -510.6    
     91      1     84    265      -510.6    
     92      1     85    265      -510.6    
     93      1     84    264      -510.6    
     94      1     79    263      -510.6    
     95      1     79    263      -510.6    
     96      1     76    262      -510.6    
     97      1     73    257      -510.6    
     98      1     74    255      -510.6    
     99      1     71    255      -510.6    
    100      1     66    253      -510.6    
    101      1     68    252      -510.6    
    102      1     69    250      -510.6    
    103      1     65    248      -510.6    
    104      1     68    248      -510.6    
    105      1     69    247      -510.6    
    106      1     73    247      -510.6    
    107      1     64    246      -510.6    
    108      1     69    245      -510.6    
    109      1     72    245      -510.6    
    110      1     69    241      -510.6    
    111      1     73    238      -510.6    
    112      1     70    238      -510.6    
    113      1     76    263      -510.6    
    114      1     66    232      -620.9    
    115      1     69    229      -620.9    
    116      1     71    228      -620.9    
    117      1     69    227      -620.9    
    118      1     72    219      -620.9    
    119      1     72    218      -620.9    
    120      1     72    218      -620.9    
    121      1     73    217      -620.9    
    122      1     77    219      -620.9    
    123      1     78    219      -620.9    
    124      1     83    213      -620.9    
    125      1     77    213      -620.9    
    126      1     81    211      -620.9    
    127      1     81    210      -620.9    
    128      1     81    210      -620.9    
    129      1     82    208      -620.9    
    130      1     80    205      -620.9    
    131      1     86    202      -620.9    
    132      1     84    200      -620.9    
    133      1     89    200      -620.9    
    134      1     89    199      -620.9    
    135      1     88    199      -620.9    
    136      1     86    199      -620.9    
    137      1     85    199      -620.9    
    138      1     82    197      -620.9    
    139      1     86    197      -620.9    
    140      1     88    198      -620.9    
    141      1     90    192      -620.9    
    142      1     89    191      -620.9    
    143      1     84    192      -620.9    
    144      1     91    189      -620.9    
    145      1     92    185      -620.9    
    146      1     87    183      -620.9    
    147      1     92    182      -620.9    
    148      1     90    182      -620.9    
    149      1     88    179      -620.9    
    150      1     89    176      -620.9    
    151      1     92    172      -620.9    
    152      1     93    164      -620.9    
    153      1     94    162      -620.9    
    154      1    103    156      -620.9    
    155      1    103    156      -620.9    
    156      1     96    154      -620.9    
    157      1     97    153      -620.9    
    158      1    122    139      -620.9    
    159      1     92     77      -620.9    
    160      1     94     77      -620.9    
    161      1     94     73      -620.9    
    162      1     97    152      -620.9    
    163      1    118    337      -666.7    
    164      1    133    319      -2678.    
    165      1    131    320      -3951.    
    166      1    133    321      -2956.    
    167      1    161    329      -2141.    
    168      1    178    330      -551.0    
    169      1    163    330      -1122.    
    170      1    131    320      -2473.    
    171      1    129    315      -3937.    
    172      1    162    329      -1959.    
    173      1    131    311      -826.1    
    174      1    221    340      -1994.    
    175      1    220    340      -1034.    
    176      1    221    340      -667.7    
    177      1    137    322      -2082.    
    178      1    137    321      -1407.    
    179      1    185    329      -2012.    
    180      1    183    329      -1473.    
    181      1    175    329      -585.3    
    182      1     79    243      -1490.    
    183      1     77    245      -2414.    
    184      1    199    329      -1617.    
    185      1    198    330      -2514.    
    186      1    140    328      -972.1    
    187      1    143    327      -863.6    
    188      1    139    327      -1331.    

    188 WELLS

 REUSING NON-PARAMETER DRAINS FROM LAST STRESS PERIOD

   1061 DRAINS

 REUSING SURF FROM LAST STRESS PERIOD

 REUSING EVTR FROM LAST STRESS PERIOD

 REUSING EXDP FROM LAST STRESS PERIOD



                           RECHARGE
 READING ON UNIT   19 WITH FORMAT: (510E15.6)          

 SOLVING FOR HEAD 
                                                   Max.-Head-Change                        Max.-Flux-Residual
  Residual-Control   Outer-Iter.   Inner-Iter.     Column Row Layer    Max.-Head-Change    Column Row Layer    Max.-Flux-Residual            L2-New               L2-Old           Solver-Max-Delh
          0                 1           3           263   79     1       0.1943585220E+02     263   79    1       0.6514068008E+04      0.3107510073E+05      0.2853341327E+02      0.1943585220E+02
          0                 2           2           263   79     1      -0.1865233926E+01     263   79    1      -0.7490935795E+03      0.3250028472E+04      0.3107510073E+05     -0.1865233926E+01
          0                 3           2           263   79     1      -0.9540629873E-01     263   79    1      -0.3827335694E+02      0.1643182184E+03      0.3250028472E+04     -0.9540629873E-01

    ------------------------------------------------
       NWT REQUIRED            3 OUTER ITERATIONS 
       AND A TOTAL OF          7 INNER ITERATIONS.
    ------------------------------------------------

 NO OUTPUT CONTROL FOR STRESS PERIOD   40   TIME STEP    1

 WELLS WITH REDUCED PUMPING FOR STRESS PERIOD    40 TIME STEP     1
   LAY   ROW   COL         APPL.Q          ACT.Q        GW-HEAD       CELL-BOT
     1    77   213  -0.620891E+03  -0.326597E+03   0.154191E+03   0.148000E+03
     1    92    77  -0.620891E+03  -0.189058E+03  -0.841663E+02  -0.930000E+02
     1    94    77  -0.620891E+03  -0.330267E+03  -0.902091E+02  -0.102000E+03
     1    94    73  -0.620891E+03  -0.187191E+03  -0.666471E+02  -0.740000E+02


 SOLVING FOR HEAD 
                                                   Max.-Head-Change                        Max.-Flux-Residual
  Residual-Control   Outer-Iter.   Inner-Iter.     Column Row Layer    Max.-Head-Change    Column Row Layer    Max.-Flux-Residual            L2-New               L2-Old           Solver-Max-Delh
          0                 1           3           263   79     1       0.7856272271E+01     156  103    1       0.2564955937E+04      0.1464806143E+05      0.1643182184E+03      0.7856272271E+01
          0                 2           2           263   79     1      -0.7240889654E+00     263   79    1      -0.2751804291E+03      0.1476901515E+04      0.1464806143E+05     -0.7240889654E+00
          0                 3           2           457  453     1       0.6428447627E-01     263   79    1      -0.1395309616E+02      0.7404006086E+02      0.1476901515E+04      0.6428447627E-01

    ------------------------------------------------
       NWT REQUIRED            3 OUTER ITERATIONS 
       AND A TOTAL OF          7 INNER ITERATIONS.
    ------------------------------------------------

 NO OUTPUT CONTROL FOR STRESS PERIOD   40   TIME STEP    2

 WELLS WITH REDUCED PUMPING FOR STRESS PERIOD    40 TIME STEP     2
   LAY   ROW   COL         APPL.Q          ACT.Q        GW-HEAD       CELL-BOT
     1    77   213  -0.620891E+03  -0.344737E+03   0.154425E+03   0.148000E+03
     1    92    77  -0.620891E+03  -0.242729E+03  -0.827135E+02  -0.930000E+02
     1    94    77  -0.620891E+03  -0.330994E+03  -0.901914E+02  -0.102000E+03
     1    94    73  -0.620891E+03  -0.191544E+03  -0.665456E+02  -0.740000E+02


 SOLVING FOR HEAD 
                                                   Max.-Head-Change                        Max.-Flux-Residual
  Residual-Control   Outer-Iter.   Inner-Iter.     Column Row Layer    Max.-Head-Change    Column Row Layer    Max.-Flux-Residual            L2-New               L2-Old           Solver-Max-Delh
          0                 1           3           263   79     1       0.3448723461E+01     393  346    1       0.2171614606E+04      0.1129098551E+05      0.7404006086E+02      0.3448723461E+01
          0                 2           2           263   79     1      -0.3162003685E+00     204   88    1      -0.2622935984E+03      0.1167298419E+04      0.1129098551E+05     -0.3162003685E+00
          0                 3           2           457  453     1       0.6412078219E-01     204   88    1      -0.1311872270E+02      0.5838650234E+02      0.1167298419E+04      0.6412078219E-01

    ------------------------------------------------
       NWT REQUIRED            3 OUTER ITERATIONS 
       AND A TOTAL OF          7 INNER ITERATIONS.
    ------------------------------------------------

 NO OUTPUT CONTROL FOR STRESS PERIOD   40   TIME STEP    3

 WELLS WITH REDUCED PUMPING FOR STRESS PERIOD    40 TIME STEP     3
   LAY   ROW   COL         APPL.Q          ACT.Q        GW-HEAD       CELL-BOT
     1    77   213  -0.620891E+03  -0.362120E+03   0.154650E+03   0.148000E+03
     1    92    77  -0.620891E+03  -0.284981E+03  -0.816080E+02  -0.930000E+02
     1    94    77  -0.620891E+03  -0.331707E+03  -0.901740E+02  -0.102000E+03
     1    94    73  -0.620891E+03  -0.195842E+03  -0.664458E+02  -0.740000E+02


 SOLVING FOR HEAD 
                                                   Max.-Head-Change                        Max.-Flux-Residual
  Residual-Control   Outer-Iter.   Inner-Iter.     Column Row Layer    Max.-Head-Change    Column Row Layer    Max.-Flux-Residual            L2-New               L2-Old           Solver-Max-Delh
          0                 1           3           263   79     1       0.1675585982E+01     383  326    1       0.1922852942E+04      0.9620202240E+04      0.5838650234E+02      0.1675585982E+01
          0                 2           2            53   88     1      -0.2144848735E+00     383  326    1      -0.1924083475E+03      0.9714086726E+03      0.9620202240E+04     -0.2144848735E+00
          0                 3           2           457  453     1       0.6393711055E-01     383  326    1      -0.9621330767E+01      0.4856858608E+02      0.9714086726E+03      0.6393711055E-01

    ------------------------------------------------
       NWT REQUIRED            3 OUTER ITERATIONS 
       AND A TOTAL OF          7 INNER ITERATIONS.
    ------------------------------------------------

 NO OUTPUT CONTROL FOR STRESS PERIOD   40   TIME STEP    4

 WELLS WITH REDUCED PUMPING FOR STRESS PERIOD    40 TIME STEP     4
   LAY   ROW   COL         APPL.Q          ACT.Q        GW-HEAD       CELL-BOT
     1    77   213  -0.620891E+03  -0.378735E+03   0.154868E+03   0.148000E+03
     1    92    77  -0.620891E+03  -0.317384E+03  -0.807687E+02  -0.930000E+02
     1    94    77  -0.620891E+03  -0.332405E+03  -0.901570E+02  -0.102000E+03
     1    94    73  -0.620891E+03  -0.200086E+03  -0.663479E+02  -0.740000E+02


 SOLVING FOR HEAD 
                                                   Max.-Head-Change                        Max.-Flux-Residual
  Residual-Control   Outer-Iter.   Inner-Iter.     Column Row Layer    Max.-Head-Change    Column Row Layer    Max.-Flux-Residual            L2-New               L2-Old           Solver-Max-Delh
          0                 1           3           264   78     1       0.1100812819E+01     383  326    1       0.1735487253E+04      0.8576013447E+04      0.4856858608E+02      0.1100812819E+01
          0                 2           2           264   78     1      -0.9658387611E-01     383  326    1      -0.1736677489E+03      0.8638808660E+03      0.8576013447E+04     -0.9658387611E-01

    ------------------------------------------------
       NWT REQUIRED            2 OUTER ITERATIONS 
       AND A TOTAL OF          5 INNER ITERATIONS.
    ------------------------------------------------

 NO OUTPUT CONTROL FOR STRESS PERIOD   40   TIME STEP    5

 WELLS WITH REDUCED PUMPING FOR STRESS PERIOD    40 TIME STEP     5
   LAY   ROW   COL         APPL.Q          ACT.Q        GW-HEAD       CELL-BOT
     1    77   213  -0.620891E+03  -0.394658E+03   0.155078E+03   0.148000E+03
     1    92    77  -0.620891E+03  -0.342072E+03  -0.801285E+02  -0.930000E+02
     1    94    77  -0.620891E+03  -0.333093E+03  -0.901403E+02  -0.102000E+03
     1    94    73  -0.620891E+03  -0.204294E+03  -0.662513E+02  -0.740000E+02


 SOLVING FOR HEAD 
                                                   Max.-Head-Change                        Max.-Flux-Residual
  Residual-Control   Outer-Iter.   Inner-Iter.     Column Row Layer    Max.-Head-Change    Column Row Layer    Max.-Flux-Residual            L2-New               L2-Old           Solver-Max-Delh
          0                 1           3           264   78     1       0.9145400245E+00     383  326    1       0.1571638232E+04      0.7841910423E+04      0.4349352619E+02      0.9145400245E+00
          0                 2           2           264   78     1      -0.8016446190E-01     383  326    1      -0.1572756763E+03      0.7866269295E+03      0.7841910423E+04     -0.8016446190E-01

    ------------------------------------------------
       NWT REQUIRED            2 OUTER ITERATIONS 
       AND A TOTAL OF          5 INNER ITERATIONS.
    ------------------------------------------------

 NO OUTPUT CONTROL FOR STRESS PERIOD   40   TIME STEP    6

 WELLS WITH REDUCED PUMPING FOR STRESS PERIOD    40 TIME STEP     6
   LAY   ROW   COL         APPL.Q          ACT.Q        GW-HEAD       CELL-BOT
     1    77   213  -0.620891E+03  -0.409811E+03   0.155281E+03   0.148000E+03
     1    92    77  -0.620891E+03  -0.360690E+03  -0.796428E+02  -0.930000E+02
     1    94    77  -0.620891E+03  -0.333768E+03  -0.901239E+02  -0.102000E+03
     1    94    73  -0.620891E+03  -0.208445E+03  -0.661565E+02  -0.740000E+02


 SOLVING FOR HEAD 
                                                   Max.-Head-Change                        Max.-Flux-Residual
  Residual-Control   Outer-Iter.   Inner-Iter.     Column Row Layer    Max.-Head-Change    Column Row Layer    Max.-Flux-Residual            L2-New               L2-Old           Solver-Max-Delh
          0                 1           3           264   78     1       0.7489996821E+00     383  326    1       0.1428699150E+04      0.7291949695E+04      0.3933438895E+02      0.7489996821E+00
          0                 2           2           264   78     1      -0.6551408547E-01     383  326    1      -0.1429730513E+03      0.7295192787E+03      0.7291949695E+04     -0.6551408547E-01

    ------------------------------------------------
       NWT REQUIRED            2 OUTER ITERATIONS 
       AND A TOTAL OF          5 INNER ITERATIONS.
    ------------------------------------------------

 NO OUTPUT CONTROL FOR STRESS PERIOD   40   TIME STEP    7

 WELLS WITH REDUCED PUMPING FOR STRESS PERIOD    40 TIME STEP     7
   LAY   ROW   COL         APPL.Q          ACT.Q        GW-HEAD       CELL-BOT
     1    77   213  -0.620891E+03  -0.424209E+03   0.155476E+03   0.148000E+03
     1    92    77  -0.620891E+03  -0.374719E+03  -0.792741E+02  -0.930000E+02
     1    94    77  -0.620891E+03  -0.334428E+03  -0.901078E+02  -0.102000E+03
     1    94    73  -0.620891E+03  -0.212537E+03  -0.660634E+02  -0.740000E+02


 SOLVING FOR HEAD 
                                                   Max.-Head-Change                        Max.-Flux-Residual
  Residual-Control   Outer-Iter.   Inner-Iter.     Column Row Layer    Max.-Head-Change    Column Row Layer    Max.-Flux-Residual            L2-New               L2-Old           Solver-Max-Delh
          0                 1           3           264   78     1       0.6138544889E+00     383  326    1       0.1303622067E+04      0.6860063121E+04      0.3650955221E+02      0.6138544889E+00
          0                 2           2           457  453     1       0.6436568956E-01     383  326    1      -0.1304560825E+03      0.6864240296E+03      0.6860063121E+04      0.6436568956E-01

    ------------------------------------------------
       NWT REQUIRED            2 OUTER ITERATIONS 
       AND A TOTAL OF          5 INNER ITERATIONS.
    ------------------------------------------------

 NO OUTPUT CONTROL FOR STRESS PERIOD   40   TIME STEP    8

 WELLS WITH REDUCED PUMPING FOR STRESS PERIOD    40 TIME STEP     8
   LAY   ROW   COL         APPL.Q          ACT.Q        GW-HEAD       CELL-BOT
     1    77   213  -0.620891E+03  -0.437866E+03   0.155665E+03   0.148000E+03
     1    92    77  -0.620891E+03  -0.385295E+03  -0.789940E+02  -0.930000E+02
     1    94    77  -0.620891E+03  -0.335076E+03  -0.900920E+02  -0.102000E+03
     1    94    73  -0.620891E+03  -0.216571E+03  -0.659720E+02  -0.740000E+02


 SOLVING FOR HEAD 
                                                   Max.-Head-Change                        Max.-Flux-Residual
  Residual-Control   Outer-Iter.   Inner-Iter.     Column Row Layer    Max.-Head-Change    Column Row Layer    Max.-Flux-Residual            L2-New               L2-Old           Solver-Max-Delh
          0                 1           3           343  217     1       0.5577007529E+00     383  326    1       0.1193846388E+04      0.6509094429E+04      0.3432283542E+02      0.5577007529E+00
          0                 2           2            48   86     1      -0.1659737818E+00     383  326    1      -0.1194693213E+03      0.6622267040E+03      0.6509094429E+04     -0.1659737818E+00
          0                 3           2           457  453     1       0.6408415733E-01     383  326    1      -0.5974095140E+01      0.3316423839E+02      0.6622267040E+03      0.6408415733E-01

    ------------------------------------------------
       NWT REQUIRED            3 OUTER ITERATIONS 
       AND A TOTAL OF          7 INNER ITERATIONS.
    ------------------------------------------------

 NO OUTPUT CONTROL FOR STRESS PERIOD   40   TIME STEP    9

 WELLS WITH REDUCED PUMPING FOR STRESS PERIOD    40 TIME STEP     9
   LAY   ROW   COL         APPL.Q          ACT.Q        GW-HEAD       CELL-BOT
     1    77   213  -0.620891E+03  -0.450744E+03   0.155847E+03   0.148000E+03
     1    92    77  -0.620891E+03  -0.393235E+03  -0.787823E+02  -0.930000E+02
     1    94    77  -0.620891E+03  -0.335708E+03  -0.900766E+02  -0.102000E+03
     1    94    73  -0.620891E+03  -0.220526E+03  -0.658827E+02  -0.740000E+02


 SOLVING FOR HEAD 
                                                   Max.-Head-Change                        Max.-Flux-Residual
  Residual-Control   Outer-Iter.   Inner-Iter.     Column Row Layer    Max.-Head-Change    Column Row Layer    Max.-Flux-Residual            L2-New               L2-Old           Solver-Max-Delh
          0                 1           3           343  217     1       0.5157090555E+00     383  326    1       0.1097674944E+04      0.6217696364E+04      0.3316423839E+02      0.5157090555E+00
          0                 2           2            52   88     1      -0.2203902183E+00      52   88    1      -0.1268490286E+03      0.6347789239E+03      0.6217696364E+04     -0.2203902183E+00
          0                 3           2           457  453     1       0.6378027836E-01      52   88    1      -0.6349717393E+01      0.3174249158E+02      0.6347789239E+03      0.6378027836E-01

    ------------------------------------------------
       NWT REQUIRED            3 OUTER ITERATIONS 
       AND A TOTAL OF          7 INNER ITERATIONS.
    ------------------------------------------------

 OUTPUT CONTROL FOR STRESS PERIOD   40   TIME STEP   10
    SAVE HEAD FOR ALL LAYERS

 WELLS WITH REDUCED PUMPING FOR STRESS PERIOD    40 TIME STEP    10
   LAY   ROW   COL         APPL.Q          ACT.Q        GW-HEAD       CELL-BOT
     1    77   213  -0.620891E+03  -0.462932E+03   0.156022E+03   0.148000E+03
     1    92    77  -0.620891E+03  -0.399232E+03  -0.786215E+02  -0.930000E+02
     1    94    77  -0.620891E+03  -0.336327E+03  -0.900615E+02  -0.102000E+03
     1    94    73  -0.620891E+03  -0.224423E+03  -0.657950E+02  -0.740000E+02


 HEAD WILL BE SAVED ON UNIT   51 AT END OF TIME STEP   10, STRESS PERIOD   40
1
  VOLUMETRIC BUDGET FOR ENTIRE MODEL AT END OF TIME STEP   10, STRESS PERIOD  40
  ------------------------------------------------------------------------------

     CUMULATIVE VOLUMES      L**3       RATES FOR THIS TIME STEP      L**3/T
     ------------------                 ------------------------

           IN:                                      IN:
           ---                                      ---
             STORAGE =   442320480.0000               STORAGE =      123915.9453
       CONSTANT HEAD =    61004488.0000         CONSTANT HEAD =       51873.6953
               WELLS =           0.0000                 WELLS =           0.0000
              DRAINS =           0.0000                DRAINS =           0.0000
                  ET =           0.0000                    ET =           0.0000
            RECHARGE =   224151856.0000              RECHARGE =      231930.0781

            TOTAL IN =   727476800.0000              TOTAL IN =      407719.7188

          OUT:                                     OUT:
          ----                                     ----
             STORAGE =   153665808.0000               STORAGE =      149930.2656
       CONSTANT HEAD =           0.0000         CONSTANT HEAD =           0.0000
               WELLS =   379774496.0000                 WELLS =       95475.1172
              DRAINS =   135341728.0000                DRAINS =      117026.3281
                  ET =    57782044.0000                    ET =       45295.1172
            RECHARGE =       81860.0000              RECHARGE =           0.0000

           TOTAL OUT =   726645952.0000             TOTAL OUT =      407726.8125

            IN - OUT =      830848.0000              IN - OUT =          -7.0938

 PERCENT DISCREPANCY =           0.11     PERCENT DISCREPANCY =          -0.00






         TIME SUMMARY AT END OF TIME STEP   10 IN STRESS PERIOD   40
                    SECONDS     MINUTES      HOURS       DAYS        YEARS
                    -----------------------------------------------------------
   TIME STEP LENGTH 2.62656E+05  4377.6      72.960      3.0400     8.32307E-03
 STRESS PERIOD TIME 2.62656E+06  43776.      729.60      30.400     8.32307E-02
         TOTAL TIME 1.05062E+08 1.75104E+06  29184.      1216.0      3.3292    
1
1
                            STRESS PERIOD NO.   41, LENGTH =   30.40000    
                            -----------------------------------------------

                              NUMBER OF TIME STEPS =    10

                               MULTIPLIER FOR DELT =     1.000

                            INITIAL TIME STEP SIZE =   3.040000    

 WELL NO.  LAYER   ROW   COL   STRESS RATE         
 --------------------------------------------------
      1      1     69    225      -3456.    
      2      1     71    224       0.000    
      3      1     74    220       0.000    
      4      1     73    220       0.000    
      5      1     71    223       0.000    
      6      1     71    223       0.000    
      7      1     72    223       0.000    
      8      1     92    173       0.000    
      9      1     94    174       0.000    
     10      1     93    175       0.000    
     11      1    203    328       0.000    
     12      1    438    460      -550.5    
     13      1    436    461      -550.5    
     14      1    410    454      -550.5    
     15      1    433    460      -550.5    
     16      1    431    462      -550.5    
     17      1    417    459      -550.5    
     18      1    418    458      -550.5    
     19      1    414    455      -550.5    
     20      1    443    464      -550.5    
     21      1    379    425      -550.5    
     22      1    362    405      -550.5    
     23      1    361    405      -550.5    
     24      1    362    406      -550.5    
     25      1    363    408      -550.5    
     26      1    364    410      -550.5    
     27      1    369    418      -550.5    
     28      1    367    417      -550.5    
     29      1    365    415      -550.5    
     30      1    402    447      -550.5    
     31      1    400    446      -550.5    
     32      1    392    444      -550.5    
     33      1    391    441      -550.5    
     34      1    403    448      -550.5    
     35      1    405    447      -550.5    
     36      1    362    410      -550.5    
     37      1    362    411      -550.5    
     38      1    363    412      -550.5    
     39      1    375    421      -550.5    
     40      1    383    430      -550.5    
     41      1    397    445      -550.5    
     42      1    360    403      -550.5    
     43      1    350    401      -550.5    
     44      1    346    393      -581.6    
     45      1    333    387      -581.6    
     46      1    328    384      -581.6    
     47      1    326    383      -581.6    
     48      1    323    378      -581.6    
     49      1    321    378      -581.6    
     50      1    322    376      -581.6    
     51      1    316    374      -581.6    
     52      1    311    371      -581.6    
     53      1    307    369      -581.6    
     54      1    305    368      -581.6    
     55      1    303    368      -581.6    
     56      1    300    369      -581.6    
     57      1    293    364      -581.6    
     58      1    292    362      -581.6    
     59      1    278    350      -581.6    
     60      1    274    351      -581.6    
     61      1    273    350      -581.6    
     62      1    271    350      -581.6    
     63      1    267    348      -581.6    
     64      1    263    348      -581.6    
     65      1    263    348      -581.6    
     66      1    248    347      -581.6    
     67      1    243    342      -581.6    
     68      1    242    339      -581.6    
     69      1    238    341      -581.6    
     70      1    233    340      -581.6    
     71      1    232    340      -581.6    
     72      1    229    341      -581.6    
     73      1    227    341      -581.6    
     74      1    219    342      -581.6    
     75      1    219    336      -581.6    
     76      1    199    329      -581.6    
     77      1    191    332      -0.000    
     78      1    190    332      -0.000    
     79      1    130    310      -0.000    
     80      1    123    305      -0.000    
     81      1    104    289      -0.000    
     82      1     96    287      -1045.    
     83      1     95    284      -1045.    
     84      1     95    280      -1045.    
     85      1     93    276      -1045.    
     86      1     94    275      -1045.    
     87      1     90    277      -1045.    
     88      1     90    273      -1045.    
     89      1     86    271      -1045.    
     90      1     85    270      -1045.    
     91      1     84    265      -1045.    
     92      1     85    265      -1045.    
     93      1     84    264      -1045.    
     94      1     79    263      -1045.    
     95      1     79    263      -1045.    
     96      1     76    262      -1045.    
     97      1     73    257      -1045.    
     98      1     74    255      -1045.    
     99      1     71    255      -1045.    
    100      1     66    253      -1045.    
    101      1     68    252      -1045.    
    102      1     69    250      -1045.    
    103      1     65    248      -1045.    
    104      1     68    248      -1045.    
    105      1     69    247      -1045.    
    106      1     73    247      -1045.    
    107      1     64    246      -1045.    
    108      1     69    245      -1045.    
    109      1     72    245      -1045.    
    110      1     69    241      -1045.    
    111      1     73    238      -1045.    
    112      1     70    238      -1045.    
    113      1     76    263      -1045.    
    114      1     66    232      -728.1    
    115      1     69    229      -728.1    
    116      1     71    228      -728.1    
    117      1     69    227      -728.1    
    118      1     72    219      -728.1    
    119      1     72    218      -728.1    
    120      1     72    218      -728.1    
    121      1     73    217      -728.1    
    122      1     77    219      -728.1    
    123      1     78    219      -728.1    
    124      1     83    213      -728.1    
    125      1     77    213      -728.1    
    126      1     81    211      -728.1    
    127      1     81    210      -728.1    
    128      1     81    210      -728.1    
    129      1     82    208      -728.1    
    130      1     80    205      -728.1    
    131      1     86    202      -728.1    
    132      1     84    200      -728.1    
    133      1     89    200      -728.1    
    134      1     89    199      -728.1    
    135      1     88    199      -728.1    
    136      1     86    199      -728.1    
    137      1     85    199      -728.1    
    138      1     82    197      -728.1    
    139      1     86    197      -728.1    
    140      1     88    198      -728.1    
    141      1     90    192      -728.1    
    142      1     89    191      -728.1    
    143      1     84    192      -728.1    
    144      1     91    189      -728.1    
    145      1     92    185      -728.1    
    146      1     87    183      -728.1    
    147      1     92    182      -728.1    
    148      1     90    182      -728.1    
    149      1     88    179      -728.1    
    150      1     89    176      -728.1    
    151      1     92    172      -728.1    
    152      1     93    164      -728.1    
    153      1     94    162      -728.1    
    154      1    103    156      -728.1    
    155      1    103    156      -728.1    
    156      1     96    154      -728.1    
    157      1     97    153      -728.1    
    158      1    122    139      -728.1    
    159      1     92     77      -728.1    
    160      1     94     77      -728.1    
    161      1     94     73      -728.1    
    162      1     97    152      -728.1    
    163      1    118    337      -666.7    
    164      1    133    319      -2678.    
    165      1    131    320      -3951.    
    166      1    133    321      -2956.    
    167      1    161    329      -2141.    
    168      1    178    330      -551.0    
    169      1    163    330      -1122.    
    170      1    131    320      -2473.    
    171      1    129    315      -3937.    
    172      1    162    329      -1959.    
    173      1    131    311      -826.1    
    174      1    221    340      -1994.    
    175      1    220    340      -1034.    
    176      1    221    340      -667.7    
    177      1    137    322      -2082.    
    178      1    137    321      -1407.    
    179      1    185    329      -2012.    
    180      1    183    329      -1473.    
    181      1    175    329      -585.3    
    182      1     79    243      -1490.    
    183      1     77    245      -2414.    
    184      1    199    329      -1617.    
    185      1    198    330      -2514.    
    186      1    140    328      -972.1    
    187      1    143    327      -863.6    
    188      1    139    327      -1331.    

    188 WELLS

 REUSING NON-PARAMETER DRAINS FROM LAST STRESS PERIOD

   1061 DRAINS

 REUSING SURF FROM LAST STRESS PERIOD

 REUSING EVTR FROM LAST STRESS PERIOD

 REUSING EXDP FROM LAST STRESS PERIOD



                           RECHARGE
 READING ON UNIT   19 WITH FORMAT: (510E15.6)          

 SOLVING FOR HEAD 
                                                   Max.-Head-Change                        Max.-Flux-Residual
  Residual-Control   Outer-Iter.   Inner-Iter.     Column Row Layer    Max.-Head-Change    Column Row Layer    Max.-Flux-Residual            L2-New               L2-Old           Solver-Max-Delh
          0                 1           3           263   79     1      -0.2855272728E+01     263   79    1      -0.1038443603E+04      0.6844141358E+04      0.3174249158E+02     -0.2855272728E+01
          0                 2           2           263   79     1       0.2416776569E+00     263   79    1       0.1026738244E+03      0.6863944361E+03      0.6844141358E+04      0.2416776569E+00
          0                 3           2           457  453     1       0.6345864703E-01     263   79    1       0.5126616135E+01      0.3425348853E+02      0.6863944361E+03      0.6345864703E-01

    ------------------------------------------------
       NWT REQUIRED            3 OUTER ITERATIONS 
       AND A TOTAL OF          7 INNER ITERATIONS.
    ------------------------------------------------

 NO OUTPUT CONTROL FOR STRESS PERIOD   41   TIME STEP    1

 WELLS WITH REDUCED PUMPING FOR STRESS PERIOD    41 TIME STEP     1
   LAY   ROW   COL         APPL.Q          ACT.Q        GW-HEAD       CELL-BOT
     1    77   213  -0.728135E+03  -0.554071E+03   0.156162E+03   0.148000E+03
     1    92    77  -0.728135E+03  -0.456939E+03  -0.788784E+02  -0.930000E+02
     1    94    77  -0.728135E+03  -0.394113E+03  -0.900679E+02  -0.102000E+03
     1    94    73  -0.728135E+03  -0.266948E+03  -0.657231E+02  -0.740000E+02


 SOLVING FOR HEAD 
                                                   Max.-Head-Change                        Max.-Flux-Residual
  Residual-Control   Outer-Iter.   Inner-Iter.     Column Row Layer    Max.-Head-Change    Column Row Layer    Max.-Flux-Residual            L2-New               L2-Old           Solver-Max-Delh
          0                 1           3           263   79     1      -0.1071709993E+01     139  122    1       0.6582727972E+03      0.4962691147E+04      0.3425348853E+02     -0.1071709993E+01
          0                 2           2            51   87     1      -0.1797185857E+00      51   87    1      -0.1037083152E+03      0.5080736621E+03      0.4962691147E+04     -0.1797185857E+00
          0                 3           2           457  453     1       0.6311959079E-01      51   87    1      -0.5190244509E+01      0.2540560514E+02      0.5080736621E+03      0.6311959079E-01

    ------------------------------------------------
       NWT REQUIRED            3 OUTER ITERATIONS 
       AND A TOTAL OF          7 INNER ITERATIONS.
    ------------------------------------------------

 NO OUTPUT CONTROL FOR STRESS PERIOD   41   TIME STEP    2

 WELLS WITH REDUCED PUMPING FOR STRESS PERIOD    41 TIME STEP     2
   LAY   ROW   COL         APPL.Q          ACT.Q        GW-HEAD       CELL-BOT
     1    77   213  -0.728135E+03  -0.564622E+03   0.156296E+03   0.148000E+03
     1    92    77  -0.728135E+03  -0.448501E+03  -0.790698E+02  -0.930000E+02
     1    94    77  -0.728135E+03  -0.393810E+03  -0.900742E+02  -0.102000E+03
     1    94    73  -0.728135E+03  -0.270637E+03  -0.656528E+02  -0.740000E+02


 SOLVING FOR HEAD 
                                                   Max.-Head-Change                        Max.-Flux-Residual
  Residual-Control   Outer-Iter.   Inner-Iter.     Column Row Layer    Max.-Head-Change    Column Row Layer    Max.-Flux-Residual            L2-New               L2-Old           Solver-Max-Delh
          0                 1           3            54   88     1       0.6836415185E+00     139  122    1       0.6382434257E+03      0.4678043867E+04      0.2540560514E+02      0.6836415185E+00
          0                 2           2           457  453     1       0.6312442388E-01     139  122    1      -0.6383315959E+02      0.4678526602E+03      0.4678043867E+04      0.6312442388E-01

    ------------------------------------------------
       NWT REQUIRED            2 OUTER ITERATIONS 
       AND A TOTAL OF          5 INNER ITERATIONS.
    ------------------------------------------------

 NO OUTPUT CONTROL FOR STRESS PERIOD   41   TIME STEP    3

 WELLS WITH REDUCED PUMPING FOR STRESS PERIOD    41 TIME STEP     3
   LAY   ROW   COL         APPL.Q          ACT.Q        GW-HEAD       CELL-BOT
     1    77   213  -0.728135E+03  -0.574624E+03   0.156426E+03   0.148000E+03
     1    92    77  -0.728135E+03  -0.442146E+03  -0.792132E+02  -0.930000E+02
     1    94    77  -0.728135E+03  -0.393508E+03  -0.900805E+02  -0.102000E+03
     1    94    73  -0.728135E+03  -0.274273E+03  -0.655836E+02  -0.740000E+02


 SOLVING FOR HEAD 
                                                   Max.-Head-Change                        Max.-Flux-Residual
  Residual-Control   Outer-Iter.   Inner-Iter.     Column Row Layer    Max.-Head-Change    Column Row Layer    Max.-Flux-Residual            L2-New               L2-Old           Solver-Max-Delh
          0                 1           3            54   88     1       0.6746042707E+00     197   82    1       0.6249004943E+03      0.4512604528E+04      0.4678526602E+03      0.6746042707E+00
          0                 2           2           457  453     1       0.6311834924E-01     197   82    1      -0.6249770789E+02      0.4536506636E+03      0.4512604528E+04      0.6311834924E-01

    ------------------------------------------------
       NWT REQUIRED            2 OUTER ITERATIONS 
       AND A TOTAL OF          5 INNER ITERATIONS.
    ------------------------------------------------

 NO OUTPUT CONTROL FOR STRESS PERIOD   41   TIME STEP    4

 WELLS WITH REDUCED PUMPING FOR STRESS PERIOD    41 TIME STEP     4
   LAY   ROW   COL         APPL.Q          ACT.Q        GW-HEAD       CELL-BOT
     1    77   213  -0.728135E+03  -0.584055E+03   0.156552E+03   0.148000E+03
     1    92    77  -0.728135E+03  -0.437385E+03  -0.793204E+02  -0.930000E+02
     1    94    77  -0.728135E+03  -0.393209E+03  -0.900867E+02  -0.102000E+03
     1    94    73  -0.728135E+03  -0.277838E+03  -0.655159E+02  -0.740000E+02


 SOLVING FOR HEAD 
                                                   Max.-Head-Change                        Max.-Flux-Residual
  Residual-Control   Outer-Iter.   Inner-Iter.     Column Row Layer    Max.-Head-Change    Column Row Layer    Max.-Flux-Residual            L2-New               L2-Old           Solver-Max-Delh
          0                 1           3            54   88     1       0.6656284562E+00     197   82    1       0.6140562578E+03      0.4387301757E+04      0.4536506636E+03      0.6656284562E+00
          0                 2           2           457  453     1       0.6309777552E-01     197   82    1      -0.6141309959E+02      0.4388050994E+03      0.4387301757E+04      0.6309777552E-01

    ------------------------------------------------
       NWT REQUIRED            2 OUTER ITERATIONS 
       AND A TOTAL OF          5 INNER ITERATIONS.
    ------------------------------------------------

 NO OUTPUT CONTROL FOR STRESS PERIOD   41   TIME STEP    5

 WELLS WITH REDUCED PUMPING FOR STRESS PERIOD    41 TIME STEP     5
   LAY   ROW   COL         APPL.Q          ACT.Q        GW-HEAD       CELL-BOT
     1    77   213  -0.728135E+03  -0.592947E+03   0.156672E+03   0.148000E+03
     1    92    77  -0.728135E+03  -0.433804E+03  -0.794008E+02  -0.930000E+02
     1    94    77  -0.728135E+03  -0.392913E+03  -0.900928E+02  -0.102000E+03
     1    94    73  -0.728135E+03  -0.281333E+03  -0.654497E+02  -0.740000E+02


 SOLVING FOR HEAD 
                                                   Max.-Head-Change                        Max.-Flux-Residual
  Residual-Control   Outer-Iter.   Inner-Iter.     Column Row Layer    Max.-Head-Change    Column Row Layer    Max.-Flux-Residual            L2-New               L2-Old           Solver-Max-Delh
          0                 1           3            54   88     1       0.6567213507E+00     197   82    1       0.6034304659E+03      0.4280650727E+04      0.4388050994E+03      0.6567213507E+00
          0                 2           2           457  453     1       0.6306277705E-01     197   82    1      -0.6035033942E+02      0.4293976191E+03      0.4280650727E+04      0.6306277705E-01

    ------------------------------------------------
       NWT REQUIRED            2 OUTER ITERATIONS 
       AND A TOTAL OF          5 INNER ITERATIONS.
    ------------------------------------------------

 NO OUTPUT CONTROL FOR STRESS PERIOD   41   TIME STEP    6

 WELLS WITH REDUCED PUMPING FOR STRESS PERIOD    41 TIME STEP     6
   LAY   ROW   COL         APPL.Q          ACT.Q        GW-HEAD       CELL-BOT
     1    77   213  -0.728135E+03  -0.601329E+03   0.156789E+03   0.148000E+03
     1    92    77  -0.728135E+03  -0.431099E+03  -0.794615E+02  -0.930000E+02
     1    94    77  -0.728135E+03  -0.392620E+03  -0.900989E+02  -0.102000E+03
     1    94    73  -0.728135E+03  -0.284758E+03  -0.653850E+02  -0.740000E+02


 SOLVING FOR HEAD 
                                                   Max.-Head-Change                        Max.-Flux-Residual
  Residual-Control   Outer-Iter.   Inner-Iter.     Column Row Layer    Max.-Head-Change    Column Row Layer    Max.-Flux-Residual            L2-New               L2-Old           Solver-Max-Delh
          0                 1           3            54   88     1       0.6478876693E+00     197   82    1       0.5930178575E+03      0.4184937995E+04      0.4293976191E+03      0.6478876693E+00
          0                 2           2            54   88     1      -0.1294804015E+00      54   88    1      -0.7494855765E+02      0.4259204517E+03      0.4184937995E+04     -0.1294804015E+00
          0                 3           2           457  453     1       0.6263524077E-01      54   88    1      -0.3749907186E+01      0.2134876851E+02      0.4259204517E+03      0.6263524077E-01

    ------------------------------------------------
       NWT REQUIRED            3 OUTER ITERATIONS 
       AND A TOTAL OF          7 INNER ITERATIONS.
    ------------------------------------------------

 NO OUTPUT CONTROL FOR STRESS PERIOD   41   TIME STEP    7

 WELLS WITH REDUCED PUMPING FOR STRESS PERIOD    41 TIME STEP     7
   LAY   ROW   COL         APPL.Q          ACT.Q        GW-HEAD       CELL-BOT
     1    77   213  -0.728135E+03  -0.609192E+03   0.156901E+03   0.148000E+03
     1    92    77  -0.728135E+03  -0.429048E+03  -0.795074E+02  -0.930000E+02
     1    94    77  -0.728135E+03  -0.392331E+03  -0.901049E+02  -0.102000E+03
     1    94    73  -0.728135E+03  -0.288099E+03  -0.653220E+02  -0.740000E+02


 SOLVING FOR HEAD 
                                                   Max.-Head-Change                        Max.-Flux-Residual
  Residual-Control   Outer-Iter.   Inner-Iter.     Column Row Layer    Max.-Head-Change    Column Row Layer    Max.-Flux-Residual            L2-New               L2-Old           Solver-Max-Delh
          0                 1           3            55   88     1       0.5570706507E+00     197   82    1       0.5828614341E+03      0.4097566224E+04      0.2134876851E+02      0.5570706507E+00
          0                 2           2           457  453     1       0.6256853144E-01     197   82    1      -0.5829308552E+02      0.4117689021E+03      0.4097566224E+04      0.6256853144E-01

    ------------------------------------------------
       NWT REQUIRED            2 OUTER ITERATIONS 
       AND A TOTAL OF          5 INNER ITERATIONS.
    ------------------------------------------------

 NO OUTPUT CONTROL FOR STRESS PERIOD   41   TIME STEP    8

 WELLS WITH REDUCED PUMPING FOR STRESS PERIOD    41 TIME STEP     8
   LAY   ROW   COL         APPL.Q          ACT.Q        GW-HEAD       CELL-BOT
     1    77   213  -0.728135E+03  -0.616638E+03   0.157009E+03   0.148000E+03
     1    92    77  -0.728135E+03  -0.427462E+03  -0.795429E+02  -0.930000E+02
     1    94    77  -0.728135E+03  -0.392043E+03  -0.901109E+02  -0.102000E+03
     1    94    73  -0.728135E+03  -0.291389E+03  -0.652600E+02  -0.740000E+02


 SOLVING FOR HEAD 
                                                   Max.-Head-Change                        Max.-Flux-Residual
  Residual-Control   Outer-Iter.   Inner-Iter.     Column Row Layer    Max.-Head-Change    Column Row Layer    Max.-Flux-Residual            L2-New               L2-Old           Solver-Max-Delh
          0                 1           3            55   88     1       0.5475209402E+00     197   82    1       0.5728589125E+03      0.4014902452E+04      0.4117689021E+03      0.5475209402E+00
          0                 2           2           457  453     1       0.6249124927E-01     197   82    1      -0.5729266289E+02      0.4015549063E+03      0.4014902452E+04      0.6249124927E-01

    ------------------------------------------------
       NWT REQUIRED            2 OUTER ITERATIONS 
       AND A TOTAL OF          5 INNER ITERATIONS.
    ------------------------------------------------

 NO OUTPUT CONTROL FOR STRESS PERIOD   41   TIME STEP    9

 WELLS WITH REDUCED PUMPING FOR STRESS PERIOD    41 TIME STEP     9
   LAY   ROW   COL         APPL.Q          ACT.Q        GW-HEAD       CELL-BOT
     1    77   213  -0.728135E+03  -0.623655E+03   0.157113E+03   0.148000E+03
     1    92    77  -0.728135E+03  -0.426228E+03  -0.795705E+02  -0.930000E+02
     1    94    77  -0.728135E+03  -0.391758E+03  -0.901168E+02  -0.102000E+03
     1    94    73  -0.728135E+03  -0.294611E+03  -0.651994E+02  -0.740000E+02


 SOLVING FOR HEAD 
                                                   Max.-Head-Change                        Max.-Flux-Residual
  Residual-Control   Outer-Iter.   Inner-Iter.     Column Row Layer    Max.-Head-Change    Column Row Layer    Max.-Flux-Residual            L2-New               L2-Old           Solver-Max-Delh
          0                 1           3            55   88     1       0.5380472863E+00     197   82    1       0.5630544809E+03      0.3937883731E+04      0.4015549063E+03      0.5380472863E+00
          0                 2           2           457  453     1       0.6239998291E-01     197   82    1      -0.5631205293E+02      0.3939081602E+03      0.3937883731E+04      0.6239998291E-01

    ------------------------------------------------
       NWT REQUIRED            2 OUTER ITERATIONS 
       AND A TOTAL OF          5 INNER ITERATIONS.
    ------------------------------------------------

 OUTPUT CONTROL FOR STRESS PERIOD   41   TIME STEP   10
    SAVE HEAD FOR ALL LAYERS

 WELLS WITH REDUCED PUMPING FOR STRESS PERIOD    41 TIME STEP    10
   LAY   ROW   COL         APPL.Q          ACT.Q        GW-HEAD       CELL-BOT
     1    77   213  -0.728135E+03  -0.630266E+03   0.157214E+03   0.148000E+03
     1    92    77  -0.728135E+03  -0.425254E+03  -0.795923E+02  -0.930000E+02
     1    94    77  -0.728135E+03  -0.391475E+03  -0.901227E+02  -0.102000E+03
     1    94    73  -0.728135E+03  -0.297767E+03  -0.651402E+02  -0.740000E+02


 HEAD WILL BE SAVED ON UNIT   51 AT END OF TIME STEP   10, STRESS PERIOD   41
1
  VOLUMETRIC BUDGET FOR ENTIRE MODEL AT END OF TIME STEP   10, STRESS PERIOD  41
  ------------------------------------------------------------------------------

     CUMULATIVE VOLUMES      L**3       RATES FOR THIS TIME STEP      L**3/T
     ------------------                 ------------------------

           IN:                                      IN:
           ---                                      ---
             STORAGE =   445473856.0000               STORAGE =       95337.9141
       CONSTANT HEAD =    62581796.0000         CONSTANT HEAD =       51894.1484
               WELLS =           0.0000                 WELLS =           0.0000
              DRAINS =           0.0000                DRAINS =           0.0000
                  ET =           0.0000                    ET =           0.0000
            RECHARGE =   232445296.0000              RECHARGE =      272810.9688

            TOTAL IN =   740500928.0000              TOTAL IN =      420043.0312

          OUT:                                     OUT:
          ----                                     ----
             STORAGE =   157250336.0000               STORAGE =      105089.8047
       CONSTANT HEAD =           0.0000         CONSTANT HEAD =           0.0000
               WELLS =   384077888.0000                 WELLS =      141597.9688
              DRAINS =   139011072.0000                DRAINS =      123318.9609
                  ET =    59250384.0000                    ET =       50088.6016
            RECHARGE =       81860.0000              RECHARGE =           0.0000

           TOTAL OUT =   739671552.0000             TOTAL OUT =      420095.3438

            IN - OUT =      829376.0000              IN - OUT =         -52.3125

 PERCENT DISCREPANCY =           0.11     PERCENT DISCREPANCY =          -0.01






         TIME SUMMARY AT END OF TIME STEP   10 IN STRESS PERIOD   41
                    SECONDS     MINUTES      HOURS       DAYS        YEARS
                    -----------------------------------------------------------
   TIME STEP LENGTH 2.62656E+05  4377.6      72.960      3.0400     8.32307E-03
 STRESS PERIOD TIME 2.62656E+06  43776.      729.60      30.400     8.32307E-02
         TOTAL TIME 1.07689E+08 1.79482E+06  29914.      1246.4      3.4125    
1
1
                            STRESS PERIOD NO.   42, LENGTH =   30.40000    
                            -----------------------------------------------

                              NUMBER OF TIME STEPS =    10

                               MULTIPLIER FOR DELT =     1.000

                            INITIAL TIME STEP SIZE =   3.040000    

 WELL NO.  LAYER   ROW   COL   STRESS RATE         
 --------------------------------------------------
      1      1     69    225      -3542.    
      2      1     71    224       0.000    
      3      1     74    220       0.000    
      4      1     73    220       0.000    
      5      1     71    223       0.000    
      6      1     71    223       0.000    
      7      1     72    223       0.000    
      8      1     92    173       0.000    
      9      1     94    174       0.000    
     10      1     93    175       0.000    
     11      1    203    328       0.000    
     12      1    438    460      -2767.    
     13      1    436    461      -2767.    
     14      1    410    454      -2767.    
     15      1    433    460      -2767.    
     16      1    431    462      -2767.    
     17      1    417    459      -2767.    
     18      1    418    458      -2767.    
     19      1    414    455      -2767.    
     20      1    443    464      -2767.    
     21      1    379    425      -2767.    
     22      1    362    405      -2767.    
     23      1    361    405      -2767.    
     24      1    362    406      -2767.    
     25      1    363    408      -2767.    
     26      1    364    410      -2767.    
     27      1    369    418      -2767.    
     28      1    367    417      -2767.    
     29      1    365    415      -2767.    
     30      1    402    447      -2767.    
     31      1    400    446      -2767.    
     32      1    392    444      -2767.    
     33      1    391    441      -2767.    
     34      1    403    448      -2767.    
     35      1    405    447      -2767.    
     36      1    362    410      -2767.    
     37      1    362    411      -2767.    
     38      1    363    412      -2767.    
     39      1    375    421      -2767.    
     40      1    383    430      -2767.    
     41      1    397    445      -2767.    
     42      1    360    403      -2767.    
     43      1    350    401      -2767.    
     44      1    346    393      -3543.    
     45      1    333    387      -3543.    
     46      1    328    384      -3543.    
     47      1    326    383      -3543.    
     48      1    323    378      -3543.    
     49      1    321    378      -3543.    
     50      1    322    376      -3543.    
     51      1    316    374      -3543.    
     52      1    311    371      -3543.    
     53      1    307    369      -3543.    
     54      1    305    368      -3543.    
     55      1    303    368      -3543.    
     56      1    300    369      -3543.    
     57      1    293    364      -3543.    
     58      1    292    362      -3543.    
     59      1    278    350      -3543.    
     60      1    274    351      -3543.    
     61      1    273    350      -3543.    
     62      1    271    350      -3543.    
     63      1    267    348      -3543.    
     64      1    263    348      -3543.    
     65      1    263    348      -3543.    
     66      1    248    347      -3543.    
     67      1    243    342      -3543.    
     68      1    242    339      -3543.    
     69      1    238    341      -3543.    
     70      1    233    340      -3543.    
     71      1    232    340      -3543.    
     72      1    229    341      -3543.    
     73      1    227    341      -3543.    
     74      1    219    342      -3543.    
     75      1    219    336      -3543.    
     76      1    199    329      -3543.    
     77      1    191    332      -4795.    
     78      1    190    332      -4795.    
     79      1    130    310      -4795.    
     80      1    123    305      -4795.    
     81      1    104    289      -4795.    
     82      1     96    287      -4290.    
     83      1     95    284      -4290.    
     84      1     95    280      -4290.    
     85      1     93    276      -4290.    
     86      1     94    275      -4290.    
     87      1     90    277      -4290.    
     88      1     90    273      -4290.    
     89      1     86    271      -4290.    
     90      1     85    270      -4290.    
     91      1     84    265      -4290.    
     92      1     85    265      -4290.    
     93      1     84    264      -4290.    
     94      1     79    263      -4290.    
     95      1     79    263      -4290.    
     96      1     76    262      -4290.    
     97      1     73    257      -4290.    
     98      1     74    255      -4290.    
     99      1     71    255      -4290.    
    100      1     66    253      -4290.    
    101      1     68    252      -4290.    
    102      1     69    250      -4290.    
    103      1     65    248      -4290.    
    104      1     68    248      -4290.    
    105      1     69    247      -4290.    
    106      1     73    247      -4290.    
    107      1     64    246      -4290.    
    108      1     69    245      -4290.    
    109      1     72    245      -4290.    
    110      1     69    241      -4290.    
    111      1     73    238      -4290.    
    112      1     70    238      -4290.    
    113      1     76    263      -4290.    
    114      1     66    232      -2310.    
    115      1     69    229      -2310.    
    116      1     71    228      -2310.    
    117      1     69    227      -2310.    
    118      1     72    219      -2310.    
    119      1     72    218      -2310.    
    120      1     72    218      -2310.    
    121      1     73    217      -2310.    
    122      1     77    219      -2310.    
    123      1     78    219      -2310.    
    124      1     83    213      -2310.    
    125      1     77    213      -2310.    
    126      1     81    211      -2310.    
    127      1     81    210      -2310.    
    128      1     81    210      -2310.    
    129      1     82    208      -2310.    
    130      1     80    205      -2310.    
    131      1     86    202      -2310.    
    132      1     84    200      -2310.    
    133      1     89    200      -2310.    
    134      1     89    199      -2310.    
    135      1     88    199      -2310.    
    136      1     86    199      -2310.    
    137      1     85    199      -2310.    
    138      1     82    197      -2310.    
    139      1     86    197      -2310.    
    140      1     88    198      -2310.    
    141      1     90    192      -2310.    
    142      1     89    191      -2310.    
    143      1     84    192      -2310.    
    144      1     91    189      -2310.    
    145      1     92    185      -2310.    
    146      1     87    183      -2310.    
    147      1     92    182      -2310.    
    148      1     90    182      -2310.    
    149      1     88    179      -2310.    
    150      1     89    176      -2310.    
    151      1     92    172      -2310.    
    152      1     93    164      -2310.    
    153      1     94    162      -2310.    
    154      1    103    156      -2310.    
    155      1    103    156      -2310.    
    156      1     96    154      -2310.    
    157      1     97    153      -2310.    
    158      1    122    139      -2310.    
    159      1     92     77      -2310.    
    160      1     94     77      -2310.    
    161      1     94     73      -2310.    
    162      1     97    152      -2310.    
    163      1    118    337      -666.7    
    164      1    133    319      -2678.    
    165      1    131    320      -3951.    
    166      1    133    321      -2956.    
    167      1    161    329      -2141.    
    168      1    178    330      -551.0    
    169      1    163    330      -1122.    
    170      1    131    320      -2473.    
    171      1    129    315      -3937.    
    172      1    162    329      -1959.    
    173      1    131    311      -826.1    
    174      1    221    340      -1994.    
    175      1    220    340      -1034.    
    176      1    221    340      -667.7    
    177      1    137    322      -2082.    
    178      1    137    321      -1407.    
    179      1    185    329      -2012.    
    180      1    183    329      -1473.    
    181      1    175    329      -585.3    
    182      1     79    243      -1490.    
    183      1     77    245      -2414.    
    184      1    199    329      -1617.    
    185      1    198    330      -2514.    
    186      1    140    328      -972.1    
    187      1    143    327      -863.6    
    188      1    139    327      -1331.    

    188 WELLS

 REUSING NON-PARAMETER DRAINS FROM LAST STRESS PERIOD

   1061 DRAINS

 REUSING SURF FROM LAST STRESS PERIOD

 REUSING EVTR FROM LAST STRESS PERIOD

 REUSING EXDP FROM LAST STRESS PERIOD



                           RECHARGE
 READING ON UNIT   19 WITH FORMAT: (510E15.6)          

 SOLVING FOR HEAD 
                                                   Max.-Head-Change                        Max.-Flux-Residual
  Residual-Control   Outer-Iter.   Inner-Iter.     Column Row Layer    Max.-Head-Change    Column Row Layer    Max.-Flux-Residual            L2-New               L2-Old           Solver-Max-Delh
          0                 1           3           263   79     1      -0.1851554028E+02     263   79    1      -0.6464449071E+04      0.3260100476E+05      0.3939081602E+03     -0.1851554028E+02
          0                 2           2           263   79     1       0.1414978278E+01     310  130    1       0.6081438233E+03      0.3253157876E+04      0.3260100476E+05      0.1414978278E+01
          0                 3           2           263   79     1       0.6918187488E-01     310  130    1       0.3037978909E+02      0.1658133996E+03      0.3253157876E+04      0.6918187488E-01

    ------------------------------------------------
       NWT REQUIRED            3 OUTER ITERATIONS 
       AND A TOTAL OF          7 INNER ITERATIONS.
    ------------------------------------------------

 NO OUTPUT CONTROL FOR STRESS PERIOD   42   TIME STEP    1

 WELLS WITH REDUCED PUMPING FOR STRESS PERIOD    42 TIME STEP     1
   LAY   ROW   COL         APPL.Q          ACT.Q        GW-HEAD       CELL-BOT
     1    77   213  -0.230952E+04  -0.191783E+04   0.156836E+03   0.148000E+03
     1    92    77  -0.230952E+04  -0.885333E+03  -0.828384E+02  -0.930000E+02
     1    94    77  -0.230952E+04  -0.119539E+04  -0.904254E+02  -0.102000E+03
     1    94    73  -0.230952E+04  -0.916191E+03  -0.653078E+02  -0.740000E+02


 SOLVING FOR HEAD 
                                                   Max.-Head-Change                        Max.-Flux-Residual
  Residual-Control   Outer-Iter.   Inner-Iter.     Column Row Layer    Max.-Head-Change    Column Row Layer    Max.-Flux-Residual            L2-New               L2-Old           Solver-Max-Delh
          0                 1           3           263   79     1      -0.7680987311E+01     332  190    1      -0.2739601298E+04      0.1633114416E+05      0.1658133996E+03     -0.7680987311E+01
          0                 2           3           263   79     1       0.6169104182E+00     332  190    1       0.2686484582E+03      0.1625927280E+04      0.1633114416E+05      0.6169104182E+00
          0                 3           2           457  453     1       0.6140379043E-01     332  190    1       0.1339400219E+02      0.8126763362E+02      0.1625927280E+04      0.6140379043E-01

    ------------------------------------------------
       NWT REQUIRED            3 OUTER ITERATIONS 
       AND A TOTAL OF          8 INNER ITERATIONS.
    ------------------------------------------------

 NO OUTPUT CONTROL FOR STRESS PERIOD   42   TIME STEP    2

 WELLS WITH REDUCED PUMPING FOR STRESS PERIOD    42 TIME STEP     2
   LAY   ROW   COL         APPL.Q          ACT.Q        GW-HEAD       CELL-BOT
     1    77   213  -0.230952E+04  -0.183759E+04   0.156489E+03   0.148000E+03
     1    92    77  -0.230952E+04  -0.669160E+03  -0.844233E+02  -0.930000E+02
     1    94    77  -0.230952E+04  -0.115160E+04  -0.907114E+02  -0.102000E+03
     1    94    73  -0.230952E+04  -0.889751E+03  -0.654652E+02  -0.740000E+02


 SOLVING FOR HEAD 
                                                   Max.-Head-Change                        Max.-Flux-Residual
  Residual-Control   Outer-Iter.   Inner-Iter.     Column Row Layer    Max.-Head-Change    Column Row Layer    Max.-Flux-Residual            L2-New               L2-Old           Solver-Max-Delh
          0                 1           3           263   79     1      -0.3544869717E+01     374  316    1      -0.2301091665E+04      0.1296919415E+05      0.8126763362E+02     -0.3544869717E+01
          0                 2           2           263   79     1       0.2937238365E+00     374  316    1       0.2299094885E+03      0.1295118210E+04      0.1296919415E+05      0.2937238365E+00
          0                 3           2           457  453     1       0.6088996629E-01     374  316    1       0.1149398521E+02      0.6473250142E+02      0.1295118210E+04      0.6088996629E-01

    ------------------------------------------------
       NWT REQUIRED            3 OUTER ITERATIONS 
       AND A TOTAL OF          7 INNER ITERATIONS.
    ------------------------------------------------

 NO OUTPUT CONTROL FOR STRESS PERIOD   42   TIME STEP    3

 WELLS WITH REDUCED PUMPING FOR STRESS PERIOD    42 TIME STEP     3
   LAY   ROW   COL         APPL.Q          ACT.Q        GW-HEAD       CELL-BOT
     1    77   213  -0.230952E+04  -0.176021E+04   0.156173E+03   0.148000E+03
     1    92    77  -0.230952E+04  -0.566732E+03  -0.852183E+02  -0.930000E+02
     1    94    77  -0.230952E+04  -0.111025E+04  -0.909815E+02  -0.102000E+03
     1    94    73  -0.230952E+04  -0.865026E+03  -0.656131E+02  -0.740000E+02


 SOLVING FOR HEAD 
                                                   Max.-Head-Change                        Max.-Flux-Residual
  Residual-Control   Outer-Iter.   Inner-Iter.     Column Row Layer    Max.-Head-Change    Column Row Layer    Max.-Flux-Residual            L2-New               L2-Old           Solver-Max-Delh
          0                 1           3           263   79     1      -0.1866869584E+01     374  316    1      -0.2062392318E+04      0.1136990757E+05      0.6473250142E+02     -0.1866869584E+01
          0                 2           2           263   79     1       0.1574267616E+00     374  316    1       0.2060551699E+03      0.1137811075E+04      0.1136990757E+05      0.1574267616E+00
          0                 3           2           457  453     1       0.6036684499E-01     374  316    1       0.1030139036E+02      0.5688022210E+02      0.1137811075E+04      0.6036684499E-01

    ------------------------------------------------
       NWT REQUIRED            3 OUTER ITERATIONS 
       AND A TOTAL OF          7 INNER ITERATIONS.
    ------------------------------------------------

 NO OUTPUT CONTROL FOR STRESS PERIOD   42   TIME STEP    4

 WELLS WITH REDUCED PUMPING FOR STRESS PERIOD    42 TIME STEP     4
   LAY   ROW   COL         APPL.Q          ACT.Q        GW-HEAD       CELL-BOT
     1    77   213  -0.230952E+04  -0.168686E+04   0.155886E+03   0.148000E+03
     1    92    77  -0.230952E+04  -0.516406E+03  -0.856244E+02  -0.930000E+02
     1    94    77  -0.230952E+04  -0.107123E+04  -0.912366E+02  -0.102000E+03
     1    94    73  -0.230952E+04  -0.841901E+03  -0.657521E+02  -0.740000E+02


 SOLVING FOR HEAD 
                                                   Max.-Head-Change                        Max.-Flux-Residual
  Residual-Control   Outer-Iter.   Inner-Iter.     Column Row Layer    Max.-Head-Change    Column Row Layer    Max.-Flux-Residual            L2-New               L2-Old           Solver-Max-Delh
          0                 1           3           263   79     1      -0.1133304275E+01     378  321    1      -0.1859092749E+04      0.1041322297E+05      0.5688022210E+02     -0.1133304275E+01
          0                 2           2           263   79     1       0.9648692768E-01     378  321    1       0.1857399108E+03      0.1041050683E+04      0.1041322297E+05      0.9648692768E-01

    ------------------------------------------------
       NWT REQUIRED            2 OUTER ITERATIONS 
       AND A TOTAL OF          5 INNER ITERATIONS.
    ------------------------------------------------

 NO OUTPUT CONTROL FOR STRESS PERIOD   42   TIME STEP    5

 WELLS WITH REDUCED PUMPING FOR STRESS PERIOD    42 TIME STEP     5
   LAY   ROW   COL         APPL.Q          ACT.Q        GW-HEAD       CELL-BOT
     1    77   213  -0.230952E+04  -0.161791E+04   0.155625E+03   0.148000E+03
     1    92    77  -0.230952E+04  -0.490899E+03  -0.858351E+02  -0.930000E+02
     1    94    77  -0.230952E+04  -0.103427E+04  -0.914787E+02  -0.102000E+03
     1    94    73  -0.230952E+04  -0.820166E+03  -0.658834E+02  -0.740000E+02


 SOLVING FOR HEAD 
                                                   Max.-Head-Change                        Max.-Flux-Residual
  Residual-Control   Outer-Iter.   Inner-Iter.     Column Row Layer    Max.-Head-Change    Column Row Layer    Max.-Flux-Residual            L2-New               L2-Old           Solver-Max-Delh
          0                 1           3           264   78     1      -0.9256489935E+00     378  321    1      -0.1700002960E+04      0.9765726294E+04      0.5204662585E+02     -0.9256489935E+00
          0                 2           2           264   78     1       0.7875045249E-01     378  321    1       0.1698401397E+03      0.9761368581E+03      0.9765726294E+04      0.7875045249E-01

    ------------------------------------------------
       NWT REQUIRED            2 OUTER ITERATIONS 
       AND A TOTAL OF          5 INNER ITERATIONS.
    ------------------------------------------------

 NO OUTPUT CONTROL FOR STRESS PERIOD   42   TIME STEP    6

 WELLS WITH REDUCED PUMPING FOR STRESS PERIOD    42 TIME STEP     6
   LAY   ROW   COL         APPL.Q          ACT.Q        GW-HEAD       CELL-BOT
     1    77   213  -0.230952E+04  -0.155406E+04   0.155389E+03   0.148000E+03
     1    92    77  -0.230952E+04  -0.477874E+03  -0.859440E+02  -0.930000E+02
     1    94    77  -0.230952E+04  -0.999467E+03  -0.917074E+02  -0.102000E+03
     1    94    73  -0.230952E+04  -0.799835E+03  -0.660069E+02  -0.740000E+02


 SOLVING FOR HEAD 
                                                   Max.-Head-Change                        Max.-Flux-Residual
  Residual-Control   Outer-Iter.   Inner-Iter.     Column Row Layer    Max.-Head-Change    Column Row Layer    Max.-Flux-Residual            L2-New               L2-Old           Solver-Max-Delh
          0                 1           3           264   78     1      -0.7884048306E+00     378  321    1      -0.1559757859E+04      0.9296708898E+04      0.4880286112E+02     -0.7884048306E+00
          0                 2           2           264   78     1       0.6714280292E-01     378  321    1       0.1558267243E+03      0.9292754445E+03      0.9296708898E+04      0.6714280292E-01

    ------------------------------------------------
       NWT REQUIRED            2 OUTER ITERATIONS 
       AND A TOTAL OF          5 INNER ITERATIONS.
    ------------------------------------------------

 NO OUTPUT CONTROL FOR STRESS PERIOD   42   TIME STEP    7

 WELLS WITH REDUCED PUMPING FOR STRESS PERIOD    42 TIME STEP     7
   LAY   ROW   COL         APPL.Q          ACT.Q        GW-HEAD       CELL-BOT
     1    77   213  -0.230952E+04  -0.149540E+04   0.155176E+03   0.148000E+03
     1    92    77  -0.230952E+04  -0.471162E+03  -0.860005E+02  -0.930000E+02
     1    94    77  -0.230952E+04  -0.966700E+03  -0.919235E+02  -0.102000E+03
     1    94    73  -0.230952E+04  -0.780811E+03  -0.661230E+02  -0.740000E+02


 SOLVING FOR HEAD 
                                                   Max.-Head-Change                        Max.-Flux-Residual
  Residual-Control   Outer-Iter.   Inner-Iter.     Column Row Layer    Max.-Head-Change    Column Row Layer    Max.-Flux-Residual            L2-New               L2-Old           Solver-Max-Delh
          0                 1           3           264   78     1      -0.6754149569E+00     378  321    1      -0.1435750001E+04      0.8939446632E+04      0.4646255698E+02     -0.6754149569E+00
          0                 2           2           457  453     1       0.5978072809E-01     378  321    1       0.1434376384E+03      0.8936839700E+03      0.8939446632E+04      0.5978072809E-01

    ------------------------------------------------
       NWT REQUIRED            2 OUTER ITERATIONS 
       AND A TOTAL OF          5 INNER ITERATIONS.
    ------------------------------------------------

 NO OUTPUT CONTROL FOR STRESS PERIOD   42   TIME STEP    8

 WELLS WITH REDUCED PUMPING FOR STRESS PERIOD    42 TIME STEP     8
   LAY   ROW   COL         APPL.Q          ACT.Q        GW-HEAD       CELL-BOT
     1    77   213  -0.230952E+04  -0.144181E+04   0.154985E+03   0.148000E+03
     1    92    77  -0.230952E+04  -0.467686E+03  -0.860299E+02  -0.930000E+02
     1    94    77  -0.230952E+04  -0.935860E+03  -0.921277E+02  -0.102000E+03
     1    94    73  -0.230952E+04  -0.763004E+03  -0.662323E+02  -0.740000E+02


 SOLVING FOR HEAD 
                                                   Max.-Head-Change                        Max.-Flux-Residual
  Residual-Control   Outer-Iter.   Inner-Iter.     Column Row Layer    Max.-Head-Change    Column Row Layer    Max.-Flux-Residual            L2-New               L2-Old           Solver-Max-Delh
          0                 1           3           264   78     1      -0.5844855046E+00     378  321    1      -0.1325792333E+04      0.8657201065E+04      0.4468199563E+02     -0.5844855046E+00
          0                 2           2           457  453     1       0.5961190326E-01     378  321    1       0.1324534897E+03      0.8655079000E+03      0.8657201065E+04      0.5961190326E-01

    ------------------------------------------------
       NWT REQUIRED            2 OUTER ITERATIONS 
       AND A TOTAL OF          5 INNER ITERATIONS.
    ------------------------------------------------

 NO OUTPUT CONTROL FOR STRESS PERIOD   42   TIME STEP    9

 WELLS WITH REDUCED PUMPING FOR STRESS PERIOD    42 TIME STEP     9
   LAY   ROW   COL         APPL.Q          ACT.Q        GW-HEAD       CELL-BOT
     1    77   213  -0.230952E+04  -0.139306E+04   0.154812E+03   0.148000E+03
     1    92    77  -0.230952E+04  -0.465879E+03  -0.860452E+02  -0.930000E+02
     1    94    77  -0.230952E+04  -0.906842E+03  -0.923207E+02  -0.102000E+03
     1    94    73  -0.230952E+04  -0.746330E+03  -0.663351E+02  -0.740000E+02


 SOLVING FOR HEAD 
                                                   Max.-Head-Change                        Max.-Flux-Residual
  Residual-Control   Outer-Iter.   Inner-Iter.     Column Row Layer    Max.-Head-Change    Column Row Layer    Max.-Flux-Residual            L2-New               L2-Old           Solver-Max-Delh
          0                 1           3           343  217     1      -0.5434623633E+00     378  321    1      -0.1228032059E+04      0.8427842686E+04      0.4359659917E+02     -0.5434623633E+00
          0                 2           2           457  453     1       0.5943361330E-01     378  321    1       0.1226885955E+03      0.8467021584E+03      0.8427842686E+04      0.5943361330E-01

    ------------------------------------------------
       NWT REQUIRED            2 OUTER ITERATIONS 
       AND A TOTAL OF          5 INNER ITERATIONS.
    ------------------------------------------------

 OUTPUT CONTROL FOR STRESS PERIOD   42   TIME STEP   10
    SAVE HEAD FOR ALL LAYERS

 WELLS WITH REDUCED PUMPING FOR STRESS PERIOD    42 TIME STEP    10
   LAY   ROW   COL         APPL.Q          ACT.Q        GW-HEAD       CELL-BOT
     1    77   213  -0.230952E+04  -0.134887E+04   0.154657E+03   0.148000E+03
     1    92    77  -0.230952E+04  -0.464937E+03  -0.860532E+02  -0.930000E+02
     1    94    77  -0.230952E+04  -0.879538E+03  -0.925032E+02  -0.102000E+03
     1    94    73  -0.230952E+04  -0.730712E+03  -0.664319E+02  -0.740000E+02


 HEAD WILL BE SAVED ON UNIT   51 AT END OF TIME STEP   10, STRESS PERIOD   42
1
  VOLUMETRIC BUDGET FOR ENTIRE MODEL AT END OF TIME STEP   10, STRESS PERIOD  42
  ------------------------------------------------------------------------------

     CUMULATIVE VOLUMES      L**3       RATES FOR THIS TIME STEP      L**3/T
     ------------------                 ------------------------

           IN:                                      IN:
           ---                                      ---
             STORAGE =   458315392.0000               STORAGE =      409935.9688
       CONSTANT HEAD =    64159700.0000         CONSTANT HEAD =       51913.1836
               WELLS =           0.0000                 WELLS =           0.0000
              DRAINS =           0.0000                DRAINS =           0.0000
                  ET =           0.0000                    ET =           0.0000
            RECHARGE =   237511056.0000              RECHARGE =      166637.7031

            TOTAL IN =   759986176.0000              TOTAL IN =      628486.8750

          OUT:                                     OUT:
          ----                                     ----
             STORAGE =   157856144.0000               STORAGE =       14243.5527
       CONSTANT HEAD =           0.0000         CONSTANT HEAD =           0.0000
               WELLS =   397979488.0000                 WELLS =      456720.0938
              DRAINS =   142560128.0000                DRAINS =      112072.7188
                  ET =    60641552.0000                    ET =       43472.0195
            RECHARGE =       81860.0000              RECHARGE =           0.0000

           TOTAL OUT =   759119168.0000             TOTAL OUT =      626508.3750

            IN - OUT =      867008.0000              IN - OUT =        1978.5000

 PERCENT DISCREPANCY =           0.11     PERCENT DISCREPANCY =           0.32






         TIME SUMMARY AT END OF TIME STEP   10 IN STRESS PERIOD   42
                    SECONDS     MINUTES      HOURS       DAYS        YEARS
                    -----------------------------------------------------------
   TIME STEP LENGTH 2.62656E+05  4377.6      72.960      3.0400     8.32307E-03
 STRESS PERIOD TIME 2.62656E+06  43776.      729.60      30.400     8.32307E-02
         TOTAL TIME 1.10316E+08 1.83859E+06  30643.      1276.8      3.4957    
1
1
                            STRESS PERIOD NO.   43, LENGTH =   30.40000    
                            -----------------------------------------------

                              NUMBER OF TIME STEPS =    10

                               MULTIPLIER FOR DELT =     1.000

                            INITIAL TIME STEP SIZE =   3.040000    

 WELL NO.  LAYER   ROW   COL   STRESS RATE         
 --------------------------------------------------
      1      1     69    225      -3629.    
      2      1     71    224       0.000    
      3      1     74    220       0.000    
      4      1     73    220       0.000    
      5      1     71    223       0.000    
      6      1     71    223       0.000    
      7      1     72    223       0.000    
      8      1     92    173       0.000    
      9      1     94    174       0.000    
     10      1     93    175       0.000    
     11      1    203    328       0.000    
     12      1    438    460      -2449.    
     13      1    436    461      -2449.    
     14      1    410    454      -2449.    
     15      1    433    460      -2449.    
     16      1    431    462      -2449.    
     17      1    417    459      -2449.    
     18      1    418    458      -2449.    
     19      1    414    455      -2449.    
     20      1    443    464      -2449.    
     21      1    379    425      -2449.    
     22      1    362    405      -2449.    
     23      1    361    405      -2449.    
     24      1    362    406      -2449.    
     25      1    363    408      -2449.    
     26      1    364    410      -2449.    
     27      1    369    418      -2449.    
     28      1    367    417      -2449.    
     29      1    365    415      -2449.    
     30      1    402    447      -2449.    
     31      1    400    446      -2449.    
     32      1    392    444      -2449.    
     33      1    391    441      -2449.    
     34      1    403    448      -2449.    
     35      1    405    447      -2449.    
     36      1    362    410      -2449.    
     37      1    362    411      -2449.    
     38      1    363    412      -2449.    
     39      1    375    421      -2449.    
     40      1    383    430      -2449.    
     41      1    397    445      -2449.    
     42      1    360    403      -2449.    
     43      1    350    401      -2449.    
     44      1    346    393      -3246.    
     45      1    333    387      -3246.    
     46      1    328    384      -3246.    
     47      1    326    383      -3246.    
     48      1    323    378      -3246.    
     49      1    321    378      -3246.    
     50      1    322    376      -3246.    
     51      1    316    374      -3246.    
     52      1    311    371      -3246.    
     53      1    307    369      -3246.    
     54      1    305    368      -3246.    
     55      1    303    368      -3246.    
     56      1    300    369      -3246.    
     57      1    293    364      -3246.    
     58      1    292    362      -3246.    
     59      1    278    350      -3246.    
     60      1    274    351      -3246.    
     61      1    273    350      -3246.    
     62      1    271    350      -3246.    
     63      1    267    348      -3246.    
     64      1    263    348      -3246.    
     65      1    263    348      -3246.    
     66      1    248    347      -3246.    
     67      1    243    342      -3246.    
     68      1    242    339      -3246.    
     69      1    238    341      -3246.    
     70      1    233    340      -3246.    
     71      1    232    340      -3246.    
     72      1    229    341      -3246.    
     73      1    227    341      -3246.    
     74      1    219    342      -3246.    
     75      1    219    336      -3246.    
     76      1    199    329      -3246.    
     77      1    191    332      -4440.    
     78      1    190    332      -4440.    
     79      1    130    310      -4440.    
     80      1    123    305      -4440.    
     81      1    104    289      -4440.    
     82      1     96    287      -3788.    
     83      1     95    284      -3788.    
     84      1     95    280      -3788.    
     85      1     93    276      -3788.    
     86      1     94    275      -3788.    
     87      1     90    277      -3788.    
     88      1     90    273      -3788.    
     89      1     86    271      -3788.    
     90      1     85    270      -3788.    
     91      1     84    265      -3788.    
     92      1     85    265      -3788.    
     93      1     84    264      -3788.    
     94      1     79    263      -3788.    
     95      1     79    263      -3788.    
     96      1     76    262      -3788.    
     97      1     73    257      -3788.    
     98      1     74    255      -3788.    
     99      1     71    255      -3788.    
    100      1     66    253      -3788.    
    101      1     68    252      -3788.    
    102      1     69    250      -3788.    
    103      1     65    248      -3788.    
    104      1     68    248      -3788.    
    105      1     69    247      -3788.    
    106      1     73    247      -3788.    
    107      1     64    246      -3788.    
    108      1     69    245      -3788.    
    109      1     72    245      -3788.    
    110      1     69    241      -3788.    
    111      1     73    238      -3788.    
    112      1     70    238      -3788.    
    113      1     76    263      -3788.    
    114      1     66    232      -2343.    
    115      1     69    229      -2343.    
    116      1     71    228      -2343.    
    117      1     69    227      -2343.    
    118      1     72    219      -2343.    
    119      1     72    218      -2343.    
    120      1     72    218      -2343.    
    121      1     73    217      -2343.    
    122      1     77    219      -2343.    
    123      1     78    219      -2343.    
    124      1     83    213      -2343.    
    125      1     77    213      -2343.    
    126      1     81    211      -2343.    
    127      1     81    210      -2343.    
    128      1     81    210      -2343.    
    129      1     82    208      -2343.    
    130      1     80    205      -2343.    
    131      1     86    202      -2343.    
    132      1     84    200      -2343.    
    133      1     89    200      -2343.    
    134      1     89    199      -2343.    
    135      1     88    199      -2343.    
    136      1     86    199      -2343.    
    137      1     85    199      -2343.    
    138      1     82    197      -2343.    
    139      1     86    197      -2343.    
    140      1     88    198      -2343.    
    141      1     90    192      -2343.    
    142      1     89    191      -2343.    
    143      1     84    192      -2343.    
    144      1     91    189      -2343.    
    145      1     92    185      -2343.    
    146      1     87    183      -2343.    
    147      1     92    182      -2343.    
    148      1     90    182      -2343.    
    149      1     88    179      -2343.    
    150      1     89    176      -2343.    
    151      1     92    172      -2343.    
    152      1     93    164      -2343.    
    153      1     94    162      -2343.    
    154      1    103    156      -2343.    
    155      1    103    156      -2343.    
    156      1     96    154      -2343.    
    157      1     97    153      -2343.    
    158      1    122    139      -2343.    
    159      1     92     77      -2343.    
    160      1     94     77      -2343.    
    161      1     94     73      -2343.    
    162      1     97    152      -2343.    
    163      1    118    337      -666.7    
    164      1    133    319      -2678.    
    165      1    131    320      -3951.    
    166      1    133    321      -2956.    
    167      1    161    329      -2141.    
    168      1    178    330      -551.0    
    169      1    163    330      -1122.    
    170      1    131    320      -2473.    
    171      1    129    315      -3937.    
    172      1    162    329      -1959.    
    173      1    131    311      -826.1    
    174      1    221    340      -1994.    
    175      1    220    340      -1034.    
    176      1    221    340      -667.7    
    177      1    137    322      -2082.    
    178      1    137    321      -1407.    
    179      1    185    329      -2012.    
    180      1    183    329      -1473.    
    181      1    175    329      -585.3    
    182      1     79    243      -1490.    
    183      1     77    245      -2414.    
    184      1    199    329      -1617.    
    185      1    198    330      -2514.    
    186      1    140    328      -972.1    
    187      1    143    327      -863.6    
    188      1    139    327      -1331.    

    188 WELLS

 REUSING NON-PARAMETER DRAINS FROM LAST STRESS PERIOD

   1061 DRAINS

 REUSING SURF FROM LAST STRESS PERIOD

 REUSING EVTR FROM LAST STRESS PERIOD

 REUSING EXDP FROM LAST STRESS PERIOD



                           RECHARGE
 READING ON UNIT   19 WITH FORMAT: (510E15.6)          

 SOLVING FOR HEAD 
                                                   Max.-Head-Change                        Max.-Flux-Residual
  Residual-Control   Outer-Iter.   Inner-Iter.     Column Row Layer    Max.-Head-Change    Column Row Layer    Max.-Flux-Residual            L2-New               L2-Old           Solver-Max-Delh
          0                 1           3           263   79     1       0.2689744939E+01     263   79    1       0.9557846241E+03      0.9360676449E+04      0.4233349243E+02      0.2689744939E+01
          0                 2           2           263   79     1      -0.2331982336E+00     263   79    1      -0.9605621187E+02      0.9349919620E+03      0.9360676449E+04     -0.2331982336E+00
          0                 3           2           457  453     1       0.5882681848E-01     263   79    1      -0.4806420365E+01      0.4674196082E+02      0.9349919620E+03      0.5882681848E-01

    ------------------------------------------------
       NWT REQUIRED            3 OUTER ITERATIONS 
       AND A TOTAL OF          7 INNER ITERATIONS.
    ------------------------------------------------

 NO OUTPUT CONTROL FOR STRESS PERIOD   43   TIME STEP    1

 WELLS WITH REDUCED PUMPING FOR STRESS PERIOD    43 TIME STEP     1
   LAY   ROW   COL         APPL.Q          ACT.Q        GW-HEAD       CELL-BOT
     1    77   213  -0.234339E+04  -0.132643E+04   0.154512E+03   0.148000E+03
     1    92    77  -0.234339E+04  -0.468287E+03  -0.860822E+02  -0.930000E+02
     1    94    77  -0.234339E+04  -0.865839E+03  -0.926793E+02  -0.102000E+03
     1    94    73  -0.234339E+04  -0.726064E+03  -0.665263E+02  -0.740000E+02


 SOLVING FOR HEAD 
                                                   Max.-Head-Change                        Max.-Flux-Residual
  Residual-Control   Outer-Iter.   Inner-Iter.     Column Row Layer    Max.-Head-Change    Column Row Layer    Max.-Flux-Residual            L2-New               L2-Old           Solver-Max-Delh
          0                 1           3           263   79     1       0.9536652350E+00     213   83    1      -0.9047812146E+03      0.8455603421E+04      0.4674196082E+02      0.9536652350E+00
          0                 2           2           263   79     1      -0.8220057690E-01     213   83    1       0.9045259133E+02      0.8471257994E+03      0.8455603421E+04     -0.8220057690E-01

    ------------------------------------------------
       NWT REQUIRED            2 OUTER ITERATIONS 
       AND A TOTAL OF          5 INNER ITERATIONS.
    ------------------------------------------------

 NO OUTPUT CONTROL FOR STRESS PERIOD   43   TIME STEP    2

 WELLS WITH REDUCED PUMPING FOR STRESS PERIOD    43 TIME STEP     2
   LAY   ROW   COL         APPL.Q          ACT.Q        GW-HEAD       CELL-BOT
     1    77   213  -0.234339E+04  -0.128816E+04   0.154381E+03   0.148000E+03
     1    92    77  -0.234339E+04  -0.466477E+03  -0.860974E+02  -0.930000E+02
     1    94    77  -0.234339E+04  -0.840709E+03  -0.928467E+02  -0.102000E+03
     1    94    73  -0.234339E+04  -0.711604E+03  -0.666155E+02  -0.740000E+02


 SOLVING FOR HEAD 
                                                   Max.-Head-Change                        Max.-Flux-Residual
  Residual-Control   Outer-Iter.   Inner-Iter.     Column Row Layer    Max.-Head-Change    Column Row Layer    Max.-Flux-Residual            L2-New               L2-Old           Solver-Max-Delh
          0                 1           3           213   83     1      -0.3652868121E+00     213   83    1      -0.8905579605E+03      0.8214497580E+04      0.4235347039E+02     -0.3652868121E+00
          0                 2           2           457  453     1       0.5842196089E-01     213   83    1       0.8903083041E+02      0.8212045072E+03      0.8214497580E+04      0.5842196089E-01

    ------------------------------------------------
       NWT REQUIRED            2 OUTER ITERATIONS 
       AND A TOTAL OF          5 INNER ITERATIONS.
    ------------------------------------------------

 NO OUTPUT CONTROL FOR STRESS PERIOD   43   TIME STEP    3

 WELLS WITH REDUCED PUMPING FOR STRESS PERIOD    43 TIME STEP     3
   LAY   ROW   COL         APPL.Q          ACT.Q        GW-HEAD       CELL-BOT
     1    77   213  -0.234339E+04  -0.125371E+04   0.154263E+03   0.148000E+03
     1    92    77  -0.234339E+04  -0.465539E+03  -0.861053E+02  -0.930000E+02
     1    94    77  -0.234339E+04  -0.817081E+03  -0.930049E+02  -0.102000E+03
     1    94    73  -0.234339E+04  -0.698057E+03  -0.666995E+02  -0.740000E+02


 SOLVING FOR HEAD 
                                                   Max.-Head-Change                        Max.-Flux-Residual
  Residual-Control   Outer-Iter.   Inner-Iter.     Column Row Layer    Max.-Head-Change    Column Row Layer    Max.-Flux-Residual            L2-New               L2-Old           Solver-Max-Delh
          0                 1           3           213   83     1      -0.3596303160E+00     213   83    1      -0.8766562584E+03      0.8048778928E+04      0.4105372437E+02     -0.3596303160E+00
          0                 2           2           457  453     1       0.5820674452E-01     213   83    1       0.8764121351E+02      0.8046687878E+03      0.8048778928E+04      0.5820674452E-01

    ------------------------------------------------
       NWT REQUIRED            2 OUTER ITERATIONS 
       AND A TOTAL OF          5 INNER ITERATIONS.
    ------------------------------------------------

 NO OUTPUT CONTROL FOR STRESS PERIOD   43   TIME STEP    4

 WELLS WITH REDUCED PUMPING FOR STRESS PERIOD    43 TIME STEP     4
   LAY   ROW   COL         APPL.Q          ACT.Q        GW-HEAD       CELL-BOT
     1    77   213  -0.234339E+04  -0.122272E+04   0.154157E+03   0.148000E+03
     1    92    77  -0.234339E+04  -0.465050E+03  -0.861094E+02  -0.930000E+02
     1    94    77  -0.234339E+04  -0.794859E+03  -0.931546E+02  -0.102000E+03
     1    94    73  -0.234339E+04  -0.685360E+03  -0.667786E+02  -0.740000E+02


 SOLVING FOR HEAD 
                                                   Max.-Head-Change                        Max.-Flux-Residual
  Residual-Control   Outer-Iter.   Inner-Iter.     Column Row Layer    Max.-Head-Change    Column Row Layer    Max.-Flux-Residual            L2-New               L2-Old           Solver-Max-Delh
          0                 1           3           213   83     1      -0.3541005636E+00     213   83    1      -0.8630674688E+03      0.7914927226E+04      0.4023204176E+02     -0.3541005636E+00
          0                 2           2           457  453     1       0.5798180727E-01     213   83    1       0.8628287571E+02      0.7922627534E+03      0.7914927226E+04      0.5798180727E-01

    ------------------------------------------------
       NWT REQUIRED            2 OUTER ITERATIONS 
       AND A TOTAL OF          5 INNER ITERATIONS.
    ------------------------------------------------

 NO OUTPUT CONTROL FOR STRESS PERIOD   43   TIME STEP    5

 WELLS WITH REDUCED PUMPING FOR STRESS PERIOD    43 TIME STEP     5
   LAY   ROW   COL         APPL.Q          ACT.Q        GW-HEAD       CELL-BOT
     1    77   213  -0.234339E+04  -0.119485E+04   0.154062E+03   0.148000E+03
     1    92    77  -0.234339E+04  -0.464793E+03  -0.861115E+02  -0.930000E+02
     1    94    77  -0.234339E+04  -0.773956E+03  -0.932962E+02  -0.102000E+03
     1    94    73  -0.234339E+04  -0.673453E+03  -0.668532E+02  -0.740000E+02


 SOLVING FOR HEAD 
                                                   Max.-Head-Change                        Max.-Flux-Residual
  Residual-Control   Outer-Iter.   Inner-Iter.     Column Row Layer    Max.-Head-Change    Column Row Layer    Max.-Flux-Residual            L2-New               L2-Old           Solver-Max-Delh
          0                 1           3           213   83     1      -0.3486942547E+00     213   83    1      -0.8497834122E+03      0.7799490158E+04      0.3961195830E+02     -0.3486942547E+00
          0                 2           2           457  453     1       0.5774708953E-01     213   83    1       0.8495499918E+02      0.7797146544E+03      0.7799490158E+04      0.5774708953E-01

    ------------------------------------------------
       NWT REQUIRED            2 OUTER ITERATIONS 
       AND A TOTAL OF          5 INNER ITERATIONS.
    ------------------------------------------------

 NO OUTPUT CONTROL FOR STRESS PERIOD   43   TIME STEP    6

 WELLS WITH REDUCED PUMPING FOR STRESS PERIOD    43 TIME STEP     6
   LAY   ROW   COL         APPL.Q          ACT.Q        GW-HEAD       CELL-BOT
     1    77   213  -0.234339E+04  -0.116980E+04   0.153977E+03   0.148000E+03
     1    92    77  -0.234339E+04  -0.464655E+03  -0.861127E+02  -0.930000E+02
     1    94    77  -0.234339E+04  -0.754286E+03  -0.934302E+02  -0.102000E+03
     1    94    73  -0.234339E+04  -0.662284E+03  -0.669234E+02  -0.740000E+02


 SOLVING FOR HEAD 
                                                   Max.-Head-Change                        Max.-Flux-Residual
  Residual-Control   Outer-Iter.   Inner-Iter.     Column Row Layer    Max.-Head-Change    Column Row Layer    Max.-Flux-Residual            L2-New               L2-Old           Solver-Max-Delh
          0                 1           3           213   83     1      -0.3434081492E+00     213   83    1      -0.8367960391E+03      0.7696643458E+04      0.3898617222E+02     -0.3434081492E+00
          0                 2           2           457  453     1       0.5750253998E-01     213   83    1       0.8365677908E+02      0.7697672453E+03      0.7696643458E+04      0.5750253998E-01

    ------------------------------------------------
       NWT REQUIRED            2 OUTER ITERATIONS 
       AND A TOTAL OF          5 INNER ITERATIONS.
    ------------------------------------------------

 NO OUTPUT CONTROL FOR STRESS PERIOD   43   TIME STEP    7

 WELLS WITH REDUCED PUMPING FOR STRESS PERIOD    43 TIME STEP     7
   LAY   ROW   COL         APPL.Q          ACT.Q        GW-HEAD       CELL-BOT
     1    77   213  -0.234339E+04  -0.114728E+04   0.153901E+03   0.148000E+03
     1    92    77  -0.234339E+04  -0.464578E+03  -0.861133E+02  -0.930000E+02
     1    94    77  -0.234339E+04  -0.735771E+03  -0.935572E+02  -0.102000E+03
     1    94    73  -0.234339E+04  -0.651801E+03  -0.669897E+02  -0.740000E+02


 SOLVING FOR HEAD 
                                                   Max.-Head-Change                        Max.-Flux-Residual
  Residual-Control   Outer-Iter.   Inner-Iter.     Column Row Layer    Max.-Head-Change    Column Row Layer    Max.-Flux-Residual            L2-New               L2-Old           Solver-Max-Delh
          0                 1           3           213   83     1      -0.3382393364E+00     213   83    1      -0.8240980789E+03      0.7605134327E+04      0.3848744494E+02     -0.3382393364E+00
          0                 2           2           457  453     1       0.5724811468E-01     213   83    1       0.8238748838E+02      0.7612268785E+03      0.7605134327E+04      0.5724811468E-01

    ------------------------------------------------
       NWT REQUIRED            2 OUTER ITERATIONS 
       AND A TOTAL OF          5 INNER ITERATIONS.
    ------------------------------------------------

 NO OUTPUT CONTROL FOR STRESS PERIOD   43   TIME STEP    8

 WELLS WITH REDUCED PUMPING FOR STRESS PERIOD    43 TIME STEP     8
   LAY   ROW   COL         APPL.Q          ACT.Q        GW-HEAD       CELL-BOT
     1    77   213  -0.234339E+04  -0.112703E+04   0.153832E+03   0.148000E+03
     1    92    77  -0.234339E+04  -0.464532E+03  -0.861137E+02  -0.930000E+02
     1    94    77  -0.234339E+04  -0.718337E+03  -0.936774E+02  -0.102000E+03
     1    94    73  -0.234339E+04  -0.641959E+03  -0.670521E+02  -0.740000E+02


 SOLVING FOR HEAD 
                                                   Max.-Head-Change                        Max.-Flux-Residual
  Residual-Control   Outer-Iter.   Inner-Iter.     Column Row Layer    Max.-Head-Change    Column Row Layer    Max.-Flux-Residual            L2-New               L2-Old           Solver-Max-Delh
          0                 1           3           213   83     1      -0.3331847680E+00     213   83    1      -0.8116819091E+03      0.7521261869E+04      0.3806048961E+02     -0.3331847680E+00
          0                 2           2           457  453     1       0.5698377900E-01     213   83    1       0.8114636486E+02      0.7520180076E+03      0.7521261869E+04      0.5698377900E-01

    ------------------------------------------------
       NWT REQUIRED            2 OUTER ITERATIONS 
       AND A TOTAL OF          5 INNER ITERATIONS.
    ------------------------------------------------

 NO OUTPUT CONTROL FOR STRESS PERIOD   43   TIME STEP    9

 WELLS WITH REDUCED PUMPING FOR STRESS PERIOD    43 TIME STEP     9
   LAY   ROW   COL         APPL.Q          ACT.Q        GW-HEAD       CELL-BOT
     1    77   213  -0.234339E+04  -0.110881E+04   0.153769E+03   0.148000E+03
     1    92    77  -0.234339E+04  -0.464500E+03  -0.861140E+02  -0.930000E+02
     1    94    77  -0.234339E+04  -0.701916E+03  -0.937913E+02  -0.102000E+03
     1    94    73  -0.234339E+04  -0.632714E+03  -0.671110E+02  -0.740000E+02


 SOLVING FOR HEAD 
                                                   Max.-Head-Change                        Max.-Flux-Residual
  Residual-Control   Outer-Iter.   Inner-Iter.     Column Row Layer    Max.-Head-Change    Column Row Layer    Max.-Flux-Residual            L2-New               L2-Old           Solver-Max-Delh
          0                 1           3           213   83     1      -0.3282416209E+00     213   83    1      -0.7995404658E+03      0.7443685645E+04      0.3760012068E+02     -0.3282416209E+00
          0                 2           2           457  453     1       0.5670950645E-01     213   83    1       0.7993270220E+02      0.7442669892E+03      0.7443685645E+04      0.5670950645E-01

    ------------------------------------------------
       NWT REQUIRED            2 OUTER ITERATIONS 
       AND A TOTAL OF          5 INNER ITERATIONS.
    ------------------------------------------------

 OUTPUT CONTROL FOR STRESS PERIOD   43   TIME STEP   10
    SAVE HEAD FOR ALL LAYERS

 WELLS WITH REDUCED PUMPING FOR STRESS PERIOD    43 TIME STEP    10
   LAY   ROW   COL         APPL.Q          ACT.Q        GW-HEAD       CELL-BOT
     1    77   213  -0.234339E+04  -0.109241E+04   0.153714E+03   0.148000E+03
     1    92    77  -0.234339E+04  -0.464476E+03  -0.861142E+02  -0.930000E+02
     1    94    77  -0.234339E+04  -0.686442E+03  -0.938993E+02  -0.102000E+03
     1    94    73  -0.234339E+04  -0.624027E+03  -0.671666E+02  -0.740000E+02


 HEAD WILL BE SAVED ON UNIT   51 AT END OF TIME STEP   10, STRESS PERIOD   43
1
  VOLUMETRIC BUDGET FOR ENTIRE MODEL AT END OF TIME STEP   10, STRESS PERIOD  43
  ------------------------------------------------------------------------------

     CUMULATIVE VOLUMES      L**3       RATES FOR THIS TIME STEP      L**3/T
     ------------------                 ------------------------

           IN:                                      IN:
           ---                                      ---
             STORAGE =   470045216.0000               STORAGE =      381334.0625
       CONSTANT HEAD =    65738164.0000         CONSTANT HEAD =       51930.9492
               WELLS =           0.0000                 WELLS =           0.0000
              DRAINS =           0.0000                DRAINS =           0.0000
                  ET =           0.0000                    ET =           0.0000
            RECHARGE =   242222736.0000              RECHARGE =      154987.8750

            TOTAL IN =   778006144.0000              TOTAL IN =      588252.8750

          OUT:                                     OUT:
          ----                                     ----
             STORAGE =   158264400.0000               STORAGE =       12501.7578
       CONSTANT HEAD =           0.0000         CONSTANT HEAD =           0.0000
               WELLS =   410956192.0000                 WELLS =      426636.2812
              DRAINS =   145861872.0000                DRAINS =      105969.7812
                  ET =    61923660.0000                    ET =       41306.2891
            RECHARGE =       81860.0000              RECHARGE =           0.0000

           TOTAL OUT =   777088000.0000             TOTAL OUT =      586414.1250

            IN - OUT =      918144.0000              IN - OUT =        1838.7500

 PERCENT DISCREPANCY =           0.12     PERCENT DISCREPANCY =           0.31






         TIME SUMMARY AT END OF TIME STEP   10 IN STRESS PERIOD   43
                    SECONDS     MINUTES      HOURS       DAYS        YEARS
                    -----------------------------------------------------------
   TIME STEP LENGTH 2.62656E+05  4377.6      72.960      3.0400     8.32307E-03
 STRESS PERIOD TIME 2.62656E+06  43776.      729.60      30.400     8.32307E-02
         TOTAL TIME 1.12942E+08 1.88237E+06  31373.      1307.2      3.5789    
1
1
                            STRESS PERIOD NO.   44, LENGTH =   30.40000    
                            -----------------------------------------------

                              NUMBER OF TIME STEPS =    10

                               MULTIPLIER FOR DELT =     1.000

                            INITIAL TIME STEP SIZE =   3.040000    

 WELL NO.  LAYER   ROW   COL   STRESS RATE         
 --------------------------------------------------
      1      1     69    225      -3715.    
      2      1     71    224       0.000    
      3      1     74    220       0.000    
      4      1     73    220       0.000    
      5      1     71    223       0.000    
      6      1     71    223       0.000    
      7      1     72    223       0.000    
      8      1     92    173       0.000    
      9      1     94    174       0.000    
     10      1     93    175       0.000    
     11      1    203    328       0.000    
     12      1    438    460      -0.000    
     13      1    436    461      -0.000    
     14      1    410    454      -0.000    
     15      1    433    460      -0.000    
     16      1    431    462      -0.000    
     17      1    417    459      -0.000    
     18      1    418    458      -0.000    
     19      1    414    455      -0.000    
     20      1    443    464      -0.000    
     21      1    379    425      -0.000    
     22      1    362    405      -0.000    
     23      1    361    405      -0.000    
     24      1    362    406      -0.000    
     25      1    363    408      -0.000    
     26      1    364    410      -0.000    
     27      1    369    418      -0.000    
     28      1    367    417      -0.000    
     29      1    365    415      -0.000    
     30      1    402    447      -0.000    
     31      1    400    446      -0.000    
     32      1    392    444      -0.000    
     33      1    391    441      -0.000    
     34      1    403    448      -0.000    
     35      1    405    447      -0.000    
     36      1    362    410      -0.000    
     37      1    362    411      -0.000    
     38      1    363    412      -0.000    
     39      1    375    421      -0.000    
     40      1    383    430      -0.000    
     41      1    397    445      -0.000    
     42      1    360    403      -0.000    
     43      1    350    401      -0.000    
     44      1    346    393      -49.88    
     45      1    333    387      -49.88    
     46      1    328    384      -49.88    
     47      1    326    383      -49.88    
     48      1    323    378      -49.88    
     49      1    321    378      -49.88    
     50      1    322    376      -49.88    
     51      1    316    374      -49.88    
     52      1    311    371      -49.88    
     53      1    307    369      -49.88    
     54      1    305    368      -49.88    
     55      1    303    368      -49.88    
     56      1    300    369      -49.88    
     57      1    293    364      -49.88    
     58      1    292    362      -49.88    
     59      1    278    350      -49.88    
     60      1    274    351      -49.88    
     61      1    273    350      -49.88    
     62      1    271    350      -49.88    
     63      1    267    348      -49.88    
     64      1    263    348      -49.88    
     65      1    263    348      -49.88    
     66      1    248    347      -49.88    
     67      1    243    342      -49.88    
     68      1    242    339      -49.88    
     69      1    238    341      -49.88    
     70      1    233    340      -49.88    
     71      1    232    340      -49.88    
     72      1    229    341      -49.88    
     73      1    227    341      -49.88    
     74      1    219    342      -49.88    
     75      1    219    336      -49.88    
     76      1    199    329      -49.88    
     77      1    191    332      -0.000    
     78      1    190    332      -0.000    
     79      1    130    310      -0.000    
     80      1    123    305      -0.000    
     81      1    104    289      -0.000    
     82      1     96    287      -510.6    
     83      1     95    284      -510.6    
     84      1     95    280      -510.6    
     85      1     93    276      -510.6    
     86      1     94    275      -510.6    
     87      1     90    277      -510.6    
     88      1     90    273      -510.6    
     89      1     86    271      -510.6    
     90      1     85    270      -510.6    
     91      1     84    265      -510.6    
     92      1     85    265      -510.6    
     93      1     84    264      -510.6    
     94      1     79    263      -510.6    
     95      1     79    263      -510.6    
     96      1     76    262      -510.6    
     97      1     73    257      -510.6    
     98      1     74    255      -510.6    
     99      1     71    255      -510.6    
    100      1     66    253      -510.6    
    101      1     68    252      -510.6    
    102      1     69    250      -510.6    
    103      1     65    248      -510.6    
    104      1     68    248      -510.6    
    105      1     69    247      -510.6    
    106      1     73    247      -510.6    
    107      1     64    246      -510.6    
    108      1     69    245      -510.6    
    109      1     72    245      -510.6    
    110      1     69    241      -510.6    
    111      1     73    238      -510.6    
    112      1     70    238      -510.6    
    113      1     76    263      -510.6    
    114      1     66    232      -620.9    
    115      1     69    229      -620.9    
    116      1     71    228      -620.9    
    117      1     69    227      -620.9    
    118      1     72    219      -620.9    
    119      1     72    218      -620.9    
    120      1     72    218      -620.9    
    121      1     73    217      -620.9    
    122      1     77    219      -620.9    
    123      1     78    219      -620.9    
    124      1     83    213      -620.9    
    125      1     77    213      -620.9    
    126      1     81    211      -620.9    
    127      1     81    210      -620.9    
    128      1     81    210      -620.9    
    129      1     82    208      -620.9    
    130      1     80    205      -620.9    
    131      1     86    202      -620.9    
    132      1     84    200      -620.9    
    133      1     89    200      -620.9    
    134      1     89    199      -620.9    
    135      1     88    199      -620.9    
    136      1     86    199      -620.9    
    137      1     85    199      -620.9    
    138      1     82    197      -620.9    
    139      1     86    197      -620.9    
    140      1     88    198      -620.9    
    141      1     90    192      -620.9    
    142      1     89    191      -620.9    
    143      1     84    192      -620.9    
    144      1     91    189      -620.9    
    145      1     92    185      -620.9    
    146      1     87    183      -620.9    
    147      1     92    182      -620.9    
    148      1     90    182      -620.9    
    149      1     88    179      -620.9    
    150      1     89    176      -620.9    
    151      1     92    172      -620.9    
    152      1     93    164      -620.9    
    153      1     94    162      -620.9    
    154      1    103    156      -620.9    
    155      1    103    156      -620.9    
    156      1     96    154      -620.9    
    157      1     97    153      -620.9    
    158      1    122    139      -620.9    
    159      1     92     77      -620.9    
    160      1     94     77      -620.9    
    161      1     94     73      -620.9    
    162      1     97    152      -620.9    
    163      1    118    337      -666.7    
    164      1    133    319      -2678.    
    165      1    131    320      -3951.    
    166      1    133    321      -2956.    
    167      1    161    329      -2141.    
    168      1    178    330      -551.0    
    169      1    163    330      -1122.    
    170      1    131    320      -2473.    
    171      1    129    315      -3937.    
    172      1    162    329      -1959.    
    173      1    131    311      -826.1    
    174      1    221    340      -1994.    
    175      1    220    340      -1034.    
    176      1    221    340      -667.7    
    177      1    137    322      -2082.    
    178      1    137    321      -1407.    
    179      1    185    329      -2012.    
    180      1    183    329      -1473.    
    181      1    175    329      -585.3    
    182      1     79    243      -1490.    
    183      1     77    245      -2414.    
    184      1    199    329      -1617.    
    185      1    198    330      -2514.    
    186      1    140    328      -972.1    
    187      1    143    327      -863.6    
    188      1    139    327      -1331.    

    188 WELLS

 REUSING NON-PARAMETER DRAINS FROM LAST STRESS PERIOD

   1061 DRAINS

 REUSING SURF FROM LAST STRESS PERIOD

 REUSING EVTR FROM LAST STRESS PERIOD

 REUSING EXDP FROM LAST STRESS PERIOD



                           RECHARGE
 READING ON UNIT   19 WITH FORMAT: (510E15.6)          

 SOLVING FOR HEAD 
                                                   Max.-Head-Change                        Max.-Flux-Residual
  Residual-Control   Outer-Iter.   Inner-Iter.     Column Row Layer    Max.-Head-Change    Column Row Layer    Max.-Flux-Residual            L2-New               L2-Old           Solver-Max-Delh
          0                 1           3           263   79     1       0.1961133823E+02     263   79    1       0.6513726350E+04      0.3187307340E+05      0.3721261971E+02      0.1961133823E+02
          0                 2           2           263   79     1      -0.1884027393E+01     263   79    1      -0.7500197831E+03      0.3317005824E+04      0.3187307340E+05     -0.1884027393E+01
          0                 3           2           263   79     1      -0.9638943952E-01     263   79    1      -0.3832827182E+02      0.1675613808E+03      0.3317005824E+04     -0.9638943952E-01

    ------------------------------------------------
       NWT REQUIRED            3 OUTER ITERATIONS 
       AND A TOTAL OF          7 INNER ITERATIONS.
    ------------------------------------------------

 NO OUTPUT CONTROL FOR STRESS PERIOD   44   TIME STEP    1

 WELLS WITH REDUCED PUMPING FOR STRESS PERIOD    44 TIME STEP     1
   LAY   ROW   COL         APPL.Q          ACT.Q        GW-HEAD       CELL-BOT
     1    77   213  -0.620891E+03  -0.307463E+03   0.153945E+03   0.148000E+03
     1    92    77  -0.620891E+03  -0.186313E+03  -0.842430E+02  -0.930000E+02
     1    94    77  -0.620891E+03  -0.184685E+03  -0.938252E+02  -0.102000E+03
     1    94    73  -0.620891E+03  -0.169823E+03  -0.670585E+02  -0.740000E+02


 SOLVING FOR HEAD 
                                                   Max.-Head-Change                        Max.-Flux-Residual
  Residual-Control   Outer-Iter.   Inner-Iter.     Column Row Layer    Max.-Head-Change    Column Row Layer    Max.-Flux-Residual            L2-New               L2-Old           Solver-Max-Delh
          0                 1           3           263   79     1       0.7975326425E+01     393  346    1       0.2648255104E+04      0.1420000012E+05      0.1675613808E+03      0.7975326425E+01
          0                 2           2           263   79     1      -0.7357310489E+00     263   79    1      -0.2775252656E+03      0.1432099652E+04      0.1420000012E+05     -0.7357310489E+00
          0                 3           2           457  453     1       0.5522029314E-01     263   79    1      -0.1407457072E+02      0.7173530354E+02      0.1432099652E+04      0.5522029314E-01

    ------------------------------------------------
       NWT REQUIRED            3 OUTER ITERATIONS 
       AND A TOTAL OF          7 INNER ITERATIONS.
    ------------------------------------------------

 NO OUTPUT CONTROL FOR STRESS PERIOD   44   TIME STEP    2

 WELLS WITH REDUCED PUMPING FOR STRESS PERIOD    44 TIME STEP     2
   LAY   ROW   COL         APPL.Q          ACT.Q        GW-HEAD       CELL-BOT
     1    77   213  -0.620891E+03  -0.324848E+03   0.154169E+03   0.148000E+03
     1    92    77  -0.620891E+03  -0.239163E+03  -0.828079E+02  -0.930000E+02
     1    94    77  -0.620891E+03  -0.187461E+03  -0.937524E+02  -0.102000E+03
     1    94    73  -0.620891E+03  -0.174262E+03  -0.669523E+02  -0.740000E+02


 SOLVING FOR HEAD 
                                                   Max.-Head-Change                        Max.-Flux-Residual
  Residual-Control   Outer-Iter.   Inner-Iter.     Column Row Layer    Max.-Head-Change    Column Row Layer    Max.-Flux-Residual            L2-New               L2-Old           Solver-Max-Delh
          0                 1           3           263   79     1       0.3514867573E+01     393  346    1       0.2297441693E+04      0.1044079946E+05      0.7173530354E+02      0.3514867573E+01
          0                 2           2           263   79     1      -0.3237748797E+00     393  346    1      -0.2298916532E+03      0.1052796978E+04      0.1044079946E+05     -0.3237748797E+00
          0                 3           2           457  453     1       0.5445842698E-01     393  346    1      -0.1149567761E+02      0.5268722826E+02      0.1052796978E+04      0.5445842698E-01

    ------------------------------------------------
       NWT REQUIRED            3 OUTER ITERATIONS 
       AND A TOTAL OF          7 INNER ITERATIONS.
    ------------------------------------------------

 NO OUTPUT CONTROL FOR STRESS PERIOD   44   TIME STEP    3

 WELLS WITH REDUCED PUMPING FOR STRESS PERIOD    44 TIME STEP     3
   LAY   ROW   COL         APPL.Q          ACT.Q        GW-HEAD       CELL-BOT
     1    77   213  -0.620891E+03  -0.341569E+03   0.154384E+03   0.148000E+03
     1    92    77  -0.620891E+03  -0.280847E+03  -0.817154E+02  -0.930000E+02
     1    94    77  -0.620891E+03  -0.190203E+03  -0.936806E+02  -0.102000E+03
     1    94    73  -0.620891E+03  -0.178655E+03  -0.668480E+02  -0.740000E+02


 SOLVING FOR HEAD 
                                                   Max.-Head-Change                        Max.-Flux-Residual
  Residual-Control   Outer-Iter.   Inner-Iter.     Column Row Layer    Max.-Head-Change    Column Row Layer    Max.-Flux-Residual            L2-New               L2-Old           Solver-Max-Delh
          0                 1           3           263   79     1       0.1709397401E+01     374  316    1       0.1998478562E+04      0.8563302965E+04      0.5268722826E+02      0.1709397401E+01
          0                 2           2           263   79     1      -0.1474008952E+00     383  326    1      -0.1999442744E+03      0.8579757582E+03      0.8563302965E+04     -0.1474008952E+00
          0                 3           2           457  453     1       0.5368709185E-01     383  326    1      -0.9998074159E+01      0.4290781306E+02      0.8579757582E+03      0.5368709185E-01

    ------------------------------------------------
       NWT REQUIRED            3 OUTER ITERATIONS 
       AND A TOTAL OF          7 INNER ITERATIONS.
    ------------------------------------------------

 NO OUTPUT CONTROL FOR STRESS PERIOD   44   TIME STEP    4

 WELLS WITH REDUCED PUMPING FOR STRESS PERIOD    44 TIME STEP     4
   LAY   ROW   COL         APPL.Q          ACT.Q        GW-HEAD       CELL-BOT
     1    77   213  -0.620891E+03  -0.357615E+03   0.154592E+03   0.148000E+03
     1    92    77  -0.620891E+03  -0.312865E+03  -0.808857E+02  -0.930000E+02
     1    94    77  -0.620891E+03  -0.192911E+03  -0.936100E+02  -0.102000E+03
     1    94    73  -0.620891E+03  -0.182999E+03  -0.667454E+02  -0.740000E+02


 SOLVING FOR HEAD 
                                                   Max.-Head-Change                        Max.-Flux-Residual
  Residual-Control   Outer-Iter.   Inner-Iter.     Column Row Layer    Max.-Head-Change    Column Row Layer    Max.-Flux-Residual            L2-New               L2-Old           Solver-Max-Delh
          0                 1           3           264   78     1       0.1108272891E+01     383  326    1       0.1799012820E+04      0.7392374338E+04      0.4290781306E+02      0.1108272891E+01
          0                 2           2           264   78     1      -0.9746857852E-01     383  326    1      -0.1800163407E+03      0.7479198459E+03      0.7392374338E+04     -0.9746857852E-01

    ------------------------------------------------
       NWT REQUIRED            2 OUTER ITERATIONS 
       AND A TOTAL OF          5 INNER ITERATIONS.
    ------------------------------------------------

 NO OUTPUT CONTROL FOR STRESS PERIOD   44   TIME STEP    5

 WELLS WITH REDUCED PUMPING FOR STRESS PERIOD    44 TIME STEP     5
   LAY   ROW   COL         APPL.Q          ACT.Q        GW-HEAD       CELL-BOT
     1    77   213  -0.620891E+03  -0.373051E+03   0.154793E+03   0.148000E+03
     1    92    77  -0.620891E+03  -0.337289E+03  -0.802528E+02  -0.930000E+02
     1    94    77  -0.620891E+03  -0.195598E+03  -0.935402E+02  -0.102000E+03
     1    94    73  -0.620891E+03  -0.187312E+03  -0.666442E+02  -0.740000E+02


 SOLVING FOR HEAD 
                                                   Max.-Head-Change                        Max.-Flux-Residual
  Residual-Control   Outer-Iter.   Inner-Iter.     Column Row Layer    Max.-Head-Change    Column Row Layer    Max.-Flux-Residual            L2-New               L2-Old           Solver-Max-Delh
          0                 1           3           264   78     1       0.9225723839E+00     383  326    1       0.1625061704E+04      0.6572608742E+04      0.3835078961E+02      0.9225723839E+00
          0                 2           2           264   78     1      -0.8088308316E-01     383  326    1      -0.1626160234E+03      0.6583166815E+03      0.6572608742E+04     -0.8088308316E-01

    ------------------------------------------------
       NWT REQUIRED            2 OUTER ITERATIONS 
       AND A TOTAL OF          5 INNER ITERATIONS.
    ------------------------------------------------

 NO OUTPUT CONTROL FOR STRESS PERIOD   44   TIME STEP    6

 WELLS WITH REDUCED PUMPING FOR STRESS PERIOD    44 TIME STEP     6
   LAY   ROW   COL         APPL.Q          ACT.Q        GW-HEAD       CELL-BOT
     1    77   213  -0.620891E+03  -0.387802E+03   0.154987E+03   0.148000E+03
     1    92    77  -0.620891E+03  -0.355723E+03  -0.797728E+02  -0.930000E+02
     1    94    77  -0.620891E+03  -0.198250E+03  -0.934716E+02  -0.102000E+03
     1    94    73  -0.620891E+03  -0.191574E+03  -0.665448E+02  -0.740000E+02


 SOLVING FOR HEAD 
                                                   Max.-Head-Change                        Max.-Flux-Residual
  Residual-Control   Outer-Iter.   Inner-Iter.     Column Row Layer    Max.-Head-Change    Column Row Layer    Max.-Flux-Residual            L2-New               L2-Old           Solver-Max-Delh
          0                 1           3           264   78     1       0.7563991604E+00     378  321    1       0.1479388447E+04      0.5963480102E+04      0.3291869912E+02      0.7563991604E+00
          0                 2           2           264   78     1      -0.6617597606E-01     378  321    1      -0.1480337592E+03      0.5965786898E+03      0.5963480102E+04     -0.6617597606E-01

    ------------------------------------------------
       NWT REQUIRED            2 OUTER ITERATIONS 
       AND A TOTAL OF          5 INNER ITERATIONS.
    ------------------------------------------------

 NO OUTPUT CONTROL FOR STRESS PERIOD   44   TIME STEP    7

 WELLS WITH REDUCED PUMPING FOR STRESS PERIOD    44 TIME STEP     7
   LAY   ROW   COL         APPL.Q          ACT.Q        GW-HEAD       CELL-BOT
     1    77   213  -0.620891E+03  -0.401874E+03   0.155174E+03   0.148000E+03
     1    92    77  -0.620891E+03  -0.369621E+03  -0.794084E+02  -0.930000E+02
     1    94    77  -0.620891E+03  -0.200868E+03  -0.934040E+02  -0.102000E+03
     1    94    73  -0.620891E+03  -0.195783E+03  -0.664472E+02  -0.740000E+02


 SOLVING FOR HEAD 
                                                   Max.-Head-Change                        Max.-Flux-Residual
  Residual-Control   Outer-Iter.   Inner-Iter.     Column Row Layer    Max.-Head-Change    Column Row Layer    Max.-Flux-Residual            L2-New               L2-Old           Solver-Max-Delh
          0                 1           3           343  217     1       0.6348986913E+00     378  321    1       0.1351288266E+04      0.5491588836E+04      0.2983064189E+02      0.6348986913E+00
          0                 2           2           343  217     1      -0.5518421128E-01     378  321    1      -0.1352183399E+03      0.5500467226E+03      0.5491588836E+04     -0.5518421128E-01

    ------------------------------------------------
       NWT REQUIRED            2 OUTER ITERATIONS 
       AND A TOTAL OF          5 INNER ITERATIONS.
    ------------------------------------------------

 NO OUTPUT CONTROL FOR STRESS PERIOD   44   TIME STEP    8

 WELLS WITH REDUCED PUMPING FOR STRESS PERIOD    44 TIME STEP     8
   LAY   ROW   COL         APPL.Q          ACT.Q        GW-HEAD       CELL-BOT
     1    77   213  -0.620891E+03  -0.415280E+03   0.155355E+03   0.148000E+03
     1    92    77  -0.620891E+03  -0.380101E+03  -0.791318E+02  -0.930000E+02
     1    94    77  -0.620891E+03  -0.203450E+03  -0.933376E+02  -0.102000E+03
     1    94    73  -0.620891E+03  -0.199937E+03  -0.663514E+02  -0.740000E+02


 SOLVING FOR HEAD 
                                                   Max.-Head-Change                        Max.-Flux-Residual
  Residual-Control   Outer-Iter.   Inner-Iter.     Column Row Layer    Max.-Head-Change    Column Row Layer    Max.-Flux-Residual            L2-New               L2-Old           Solver-Max-Delh
          0                 1           3           343  217     1       0.5914670707E+00     378  321    1       0.1237479671E+04      0.5114698756E+04      0.2750361039E+02      0.5914670707E+00
          0                 2           2           457  453     1       0.5189815740E-01     378  321    1      -0.1238311213E+03      0.5115636162E+03      0.5114698756E+04      0.5189815740E-01

    ------------------------------------------------
       NWT REQUIRED            2 OUTER ITERATIONS 
       AND A TOTAL OF          5 INNER ITERATIONS.
    ------------------------------------------------

 NO OUTPUT CONTROL FOR STRESS PERIOD   44   TIME STEP    9

 WELLS WITH REDUCED PUMPING FOR STRESS PERIOD    44 TIME STEP     9
   LAY   ROW   COL         APPL.Q          ACT.Q        GW-HEAD       CELL-BOT
     1    77   213  -0.620891E+03  -0.428034E+03   0.155529E+03   0.148000E+03
     1    92    77  -0.620891E+03  -0.388007E+03  -0.789219E+02  -0.930000E+02
     1    94    77  -0.620891E+03  -0.205999E+03  -0.932722E+02  -0.102000E+03
     1    94    73  -0.620891E+03  -0.204036E+03  -0.662572E+02  -0.740000E+02


 SOLVING FOR HEAD 
                                                   Max.-Head-Change                        Max.-Flux-Residual
  Residual-Control   Outer-Iter.   Inner-Iter.     Column Row Layer    Max.-Head-Change    Column Row Layer    Max.-Flux-Residual            L2-New               L2-Old           Solver-Max-Delh
          0                 1           3           343  217     1       0.5468893063E+00     378  321    1       0.1136078107E+04      0.4806668112E+04      0.2557905406E+02      0.5468893063E+00
          0                 2           2           457  453     1       0.5150601698E-01     378  321    1      -0.1136842735E+03      0.4807378041E+03      0.4806668112E+04      0.5150601698E-01

    ------------------------------------------------
       NWT REQUIRED            2 OUTER ITERATIONS 
       AND A TOTAL OF          5 INNER ITERATIONS.
    ------------------------------------------------

 OUTPUT CONTROL FOR STRESS PERIOD   44   TIME STEP   10
    SAVE HEAD FOR ALL LAYERS

 WELLS WITH REDUCED PUMPING FOR STRESS PERIOD    44 TIME STEP    10
   LAY   ROW   COL         APPL.Q          ACT.Q        GW-HEAD       CELL-BOT
     1    77   213  -0.620891E+03  -0.440156E+03   0.155697E+03   0.148000E+03
     1    92    77  -0.620891E+03  -0.393969E+03  -0.787627E+02  -0.930000E+02
     1    94    77  -0.620891E+03  -0.208512E+03  -0.932079E+02  -0.102000E+03
     1    94    73  -0.620891E+03  -0.208078E+03  -0.661648E+02  -0.740000E+02


 HEAD WILL BE SAVED ON UNIT   51 AT END OF TIME STEP   10, STRESS PERIOD   44
1
  VOLUMETRIC BUDGET FOR ENTIRE MODEL AT END OF TIME STEP   10, STRESS PERIOD  44
  ------------------------------------------------------------------------------

     CUMULATIVE VOLUMES      L**3       RATES FOR THIS TIME STEP      L**3/T
     ------------------                 ------------------------

           IN:                                      IN:
           ---                                      ---
             STORAGE =   475238400.0000               STORAGE =      135950.1562
       CONSTANT HEAD =    67317144.0000         CONSTANT HEAD =       51947.4883
               WELLS =           0.0000                 WELLS =           0.0000
              DRAINS =           0.0000                DRAINS =           0.0000
                  ET =           0.0000                    ET =           0.0000
            RECHARGE =   247205136.0000              RECHARGE =      163893.5938

            TOTAL IN =   789760640.0000              TOTAL IN =      351791.2500

          OUT:                                     OUT:
          ----                                     ----
             STORAGE =   162459888.0000               STORAGE =       98650.5938
       CONSTANT HEAD =           0.0000         CONSTANT HEAD =           0.0000
               WELLS =   413858976.0000                 WELLS =       95648.5234
              DRAINS =   149222624.0000                DRAINS =      113764.1406
                  ET =    63215988.0000                    ET =       43546.5039
            RECHARGE =       81860.0000              RECHARGE =           0.0000

           TOTAL OUT =   788839360.0000             TOTAL OUT =      351609.7500

            IN - OUT =      921280.0000              IN - OUT =         181.5000

 PERCENT DISCREPANCY =           0.12     PERCENT DISCREPANCY =           0.05






         TIME SUMMARY AT END OF TIME STEP   10 IN STRESS PERIOD   44
                    SECONDS     MINUTES      HOURS       DAYS        YEARS
                    -----------------------------------------------------------
   TIME STEP LENGTH 2.62656E+05  4377.6      72.960      3.0400     8.32307E-03
 STRESS PERIOD TIME 2.62656E+06  43776.      729.60      30.400     8.32307E-02
         TOTAL TIME 1.15569E+08 1.92615E+06  32102.      1337.6      3.6622    
1
1
                            STRESS PERIOD NO.   45, LENGTH =   30.40000    
                            -----------------------------------------------

                              NUMBER OF TIME STEPS =    10

                               MULTIPLIER FOR DELT =     1.000

                            INITIAL TIME STEP SIZE =   3.040000    

 WELL NO.  LAYER   ROW   COL   STRESS RATE         
 --------------------------------------------------
      1      1     69    225      -3802.    
      2      1     71    224       0.000    
      3      1     74    220       0.000    
      4      1     73    220       0.000    
      5      1     71    223       0.000    
      6      1     71    223       0.000    
      7      1     72    223       0.000    
      8      1     92    173       0.000    
      9      1     94    174       0.000    
     10      1     93    175       0.000    
     11      1    203    328       0.000    
     12      1    438    460      -550.5    
     13      1    436    461      -550.5    
     14      1    410    454      -550.5    
     15      1    433    460      -550.5    
     16      1    431    462      -550.5    
     17      1    417    459      -550.5    
     18      1    418    458      -550.5    
     19      1    414    455      -550.5    
     20      1    443    464      -550.5    
     21      1    379    425      -550.5    
     22      1    362    405      -550.5    
     23      1    361    405      -550.5    
     24      1    362    406      -550.5    
     25      1    363    408      -550.5    
     26      1    364    410      -550.5    
     27      1    369    418      -550.5    
     28      1    367    417      -550.5    
     29      1    365    415      -550.5    
     30      1    402    447      -550.5    
     31      1    400    446      -550.5    
     32      1    392    444      -550.5    
     33      1    391    441      -550.5    
     34      1    403    448      -550.5    
     35      1    405    447      -550.5    
     36      1    362    410      -550.5    
     37      1    362    411      -550.5    
     38      1    363    412      -550.5    
     39      1    375    421      -550.5    
     40      1    383    430      -550.5    
     41      1    397    445      -550.5    
     42      1    360    403      -550.5    
     43      1    350    401      -550.5    
     44      1    346    393      -581.6    
     45      1    333    387      -581.6    
     46      1    328    384      -581.6    
     47      1    326    383      -581.6    
     48      1    323    378      -581.6    
     49      1    321    378      -581.6    
     50      1    322    376      -581.6    
     51      1    316    374      -581.6    
     52      1    311    371      -581.6    
     53      1    307    369      -581.6    
     54      1    305    368      -581.6    
     55      1    303    368      -581.6    
     56      1    300    369      -581.6    
     57      1    293    364      -581.6    
     58      1    292    362      -581.6    
     59      1    278    350      -581.6    
     60      1    274    351      -581.6    
     61      1    273    350      -581.6    
     62      1    271    350      -581.6    
     63      1    267    348      -581.6    
     64      1    263    348      -581.6    
     65      1    263    348      -581.6    
     66      1    248    347      -581.6    
     67      1    243    342      -581.6    
     68      1    242    339      -581.6    
     69      1    238    341      -581.6    
     70      1    233    340      -581.6    
     71      1    232    340      -581.6    
     72      1    229    341      -581.6    
     73      1    227    341      -581.6    
     74      1    219    342      -581.6    
     75      1    219    336      -581.6    
     76      1    199    329      -581.6    
     77      1    191    332      -0.000    
     78      1    190    332      -0.000    
     79      1    130    310      -0.000    
     80      1    123    305      -0.000    
     81      1    104    289      -0.000    
     82      1     96    287      -1045.    
     83      1     95    284      -1045.    
     84      1     95    280      -1045.    
     85      1     93    276      -1045.    
     86      1     94    275      -1045.    
     87      1     90    277      -1045.    
     88      1     90    273      -1045.    
     89      1     86    271      -1045.    
     90      1     85    270      -1045.    
     91      1     84    265      -1045.    
     92      1     85    265      -1045.    
     93      1     84    264      -1045.    
     94      1     79    263      -1045.    
     95      1     79    263      -1045.    
     96      1     76    262      -1045.    
     97      1     73    257      -1045.    
     98      1     74    255      -1045.    
     99      1     71    255      -1045.    
    100      1     66    253      -1045.    
    101      1     68    252      -1045.    
    102      1     69    250      -1045.    
    103      1     65    248      -1045.    
    104      1     68    248      -1045.    
    105      1     69    247      -1045.    
    106      1     73    247      -1045.    
    107      1     64    246      -1045.    
    108      1     69    245      -1045.    
    109      1     72    245      -1045.    
    110      1     69    241      -1045.    
    111      1     73    238      -1045.    
    112      1     70    238      -1045.    
    113      1     76    263      -1045.    
    114      1     66    232      -728.1    
    115      1     69    229      -728.1    
    116      1     71    228      -728.1    
    117      1     69    227      -728.1    
    118      1     72    219      -728.1    
    119      1     72    218      -728.1    
    120      1     72    218      -728.1    
    121      1     73    217      -728.1    
    122      1     77    219      -728.1    
    123      1     78    219      -728.1    
    124      1     83    213      -728.1    
    125      1     77    213      -728.1    
    126      1     81    211      -728.1    
    127      1     81    210      -728.1    
    128      1     81    210      -728.1    
    129      1     82    208      -728.1    
    130      1     80    205      -728.1    
    131      1     86    202      -728.1    
    132      1     84    200      -728.1    
    133      1     89    200      -728.1    
    134      1     89    199      -728.1    
    135      1     88    199      -728.1    
    136      1     86    199      -728.1    
    137      1     85    199      -728.1    
    138      1     82    197      -728.1    
    139      1     86    197      -728.1    
    140      1     88    198      -728.1    
    141      1     90    192      -728.1    
    142      1     89    191      -728.1    
    143      1     84    192      -728.1    
    144      1     91    189      -728.1    
    145      1     92    185      -728.1    
    146      1     87    183      -728.1    
    147      1     92    182      -728.1    
    148      1     90    182      -728.1    
    149      1     88    179      -728.1    
    150      1     89    176      -728.1    
    151      1     92    172      -728.1    
    152      1     93    164      -728.1    
    153      1     94    162      -728.1    
    154      1    103    156      -728.1    
    155      1    103    156      -728.1    
    156      1     96    154      -728.1    
    157      1     97    153      -728.1    
    158      1    122    139      -728.1    
    159      1     92     77      -728.1    
    160      1     94     77      -728.1    
    161      1     94     73      -728.1    
    162      1     97    152      -728.1    
    163      1    118    337      -666.7    
    164      1    133    319      -2678.    
    165      1    131    320      -3951.    
    166      1    133    321      -2956.    
    167      1    161    329      -2141.    
    168      1    178    330      -551.0    
    169      1    163    330      -1122.    
    170      1    131    320      -2473.    
    171      1    129    315      -3937.    
    172      1    162    329      -1959.    
    173      1    131    311      -826.1    
    174      1    221    340      -1994.    
    175      1    220    340      -1034.    
    176      1    221    340      -667.7    
    177      1    137    322      -2082.    
    178      1    137    321      -1407.    
    179      1    185    329      -2012.    
    180      1    183    329      -1473.    
    181      1    175    329      -585.3    
    182      1     79    243      -1490.    
    183      1     77    245      -2414.    
    184      1    199    329      -1617.    
    185      1    198    330      -2514.    
    186      1    140    328      -972.1    
    187      1    143    327      -863.6    
    188      1    139    327      -1331.    

    188 WELLS

 REUSING NON-PARAMETER DRAINS FROM LAST STRESS PERIOD

   1061 DRAINS

 REUSING SURF FROM LAST STRESS PERIOD

 REUSING EVTR FROM LAST STRESS PERIOD

 REUSING EXDP FROM LAST STRESS PERIOD



                           RECHARGE
 READING ON UNIT   19 WITH FORMAT: (510E15.6)          

 SOLVING FOR HEAD 
                                                   Max.-Head-Change                        Max.-Flux-Residual
  Residual-Control   Outer-Iter.   Inner-Iter.     Column Row Layer    Max.-Head-Change    Column Row Layer    Max.-Flux-Residual            L2-New               L2-Old           Solver-Max-Delh
          0                 1           3           263   79     1      -0.2890782649E+01     461  449    1       0.1323819465E+04      0.1036560123E+05      0.4807378041E+03     -0.2890782649E+01
          0                 2           2           263   79     1       0.2444172457E+00     466  446    1      -0.1343795746E+03      0.1043080443E+04      0.1036560123E+05      0.2444172457E+00
          0                 3           2           457  453     1       0.5064858692E-01     466  446    1      -0.6739453942E+01      0.5219849701E+02      0.1043080443E+04      0.5064858692E-01

    ------------------------------------------------
       NWT REQUIRED            3 OUTER ITERATIONS 
       AND A TOTAL OF          7 INNER ITERATIONS.
    ------------------------------------------------

 NO OUTPUT CONTROL FOR STRESS PERIOD   45   TIME STEP    1

 WELLS WITH REDUCED PUMPING FOR STRESS PERIOD    45 TIME STEP     1
   LAY   ROW   COL         APPL.Q          ACT.Q        GW-HEAD       CELL-BOT
     1    77   213  -0.728135E+03  -0.527304E+03   0.155831E+03   0.148000E+03
     1    92    77  -0.728135E+03  -0.450866E+03  -0.790162E+02  -0.930000E+02
     1    94    77  -0.728135E+03  -0.246821E+03  -0.931580E+02  -0.102000E+03
     1    94    73  -0.728135E+03  -0.247996E+03  -0.660876E+02  -0.740000E+02


 SOLVING FOR HEAD 
                                                   Max.-Head-Change                        Max.-Flux-Residual
  Residual-Control   Outer-Iter.   Inner-Iter.     Column Row Layer    Max.-Head-Change    Column Row Layer    Max.-Flux-Residual            L2-New               L2-Old           Solver-Max-Delh
          0                 1           3           263   79     1      -0.1101500206E+01     461  449    1       0.1074407906E+04      0.7645176725E+04      0.5219849701E+02     -0.1101500206E+01
          0                 2           2           263   79     1       0.9471024723E-01     461  449    1      -0.1085728264E+03      0.7663314387E+03      0.7645176725E+04      0.9471024723E-01

    ------------------------------------------------
       NWT REQUIRED            2 OUTER ITERATIONS 
       AND A TOTAL OF          5 INNER ITERATIONS.
    ------------------------------------------------

 NO OUTPUT CONTROL FOR STRESS PERIOD   45   TIME STEP    2

 WELLS WITH REDUCED PUMPING FOR STRESS PERIOD    45 TIME STEP     2
   LAY   ROW   COL         APPL.Q          ACT.Q        GW-HEAD       CELL-BOT
     1    77   213  -0.728135E+03  -0.537889E+03   0.155960E+03   0.148000E+03
     1    92    77  -0.728135E+03  -0.442477E+03  -0.792058E+02  -0.930000E+02
     1    94    77  -0.728135E+03  -0.249086E+03  -0.931088E+02  -0.102000E+03
     1    94    73  -0.728135E+03  -0.251921E+03  -0.660117E+02  -0.740000E+02


 SOLVING FOR HEAD 
                                                   Max.-Head-Change                        Max.-Flux-Residual
  Residual-Control   Outer-Iter.   Inner-Iter.     Column Row Layer    Max.-Head-Change    Column Row Layer    Max.-Flux-Residual            L2-New               L2-Old           Solver-Max-Delh
          0                 1           3           263   79     1      -0.4237796022E+00     461  449    1       0.8606156198E+03      0.6855033561E+04      0.3833039345E+02     -0.4237796022E+00
          0                 2           2           457  453     1       0.4981665812E-01     461  450    1      -0.8643003746E+02      0.6862638475E+03      0.6855033561E+04      0.4981665812E-01

    ------------------------------------------------
       NWT REQUIRED            2 OUTER ITERATIONS 
       AND A TOTAL OF          5 INNER ITERATIONS.
    ------------------------------------------------

 NO OUTPUT CONTROL FOR STRESS PERIOD   45   TIME STEP    3

 WELLS WITH REDUCED PUMPING FOR STRESS PERIOD    45 TIME STEP     3
   LAY   ROW   COL         APPL.Q          ACT.Q        GW-HEAD       CELL-BOT
     1    77   213  -0.728135E+03  -0.547911E+03   0.156084E+03   0.148000E+03
     1    92    77  -0.728135E+03  -0.436209E+03  -0.793468E+02  -0.930000E+02
     1    94    77  -0.728135E+03  -0.251311E+03  -0.930605E+02  -0.102000E+03
     1    94    73  -0.728135E+03  -0.255775E+03  -0.659373E+02  -0.740000E+02


 SOLVING FOR HEAD 
                                                   Max.-Head-Change                        Max.-Flux-Residual
  Residual-Control   Outer-Iter.   Inner-Iter.     Column Row Layer    Max.-Head-Change    Column Row Layer    Max.-Flux-Residual            L2-New               L2-Old           Solver-Max-Delh
          0                 1           3           461  449     1       0.2597739211E+00     461  449    1       0.7174403239E+03      0.6400459641E+04      0.3431925198E+02      0.2597739211E+00
          0                 2           2           457  453     1       0.4938742433E-01     461  449    1      -0.7209841620E+02      0.6404904539E+03      0.6400459641E+04      0.4938742433E-01

    ------------------------------------------------
       NWT REQUIRED            2 OUTER ITERATIONS 
       AND A TOTAL OF          5 INNER ITERATIONS.
    ------------------------------------------------

 NO OUTPUT CONTROL FOR STRESS PERIOD   45   TIME STEP    4

 WELLS WITH REDUCED PUMPING FOR STRESS PERIOD    45 TIME STEP     4
   LAY   ROW   COL         APPL.Q          ACT.Q        GW-HEAD       CELL-BOT
     1    77   213  -0.728135E+03  -0.557398E+03   0.156204E+03   0.148000E+03
     1    92    77  -0.728135E+03  -0.431519E+03  -0.794521E+02  -0.930000E+02
     1    94    77  -0.728135E+03  -0.253498E+03  -0.930132E+02  -0.102000E+03
     1    94    73  -0.728135E+03  -0.259558E+03  -0.658646E+02  -0.740000E+02


 SOLVING FOR HEAD 
                                                   Max.-Head-Change                        Max.-Flux-Residual
  Residual-Control   Outer-Iter.   Inner-Iter.     Column Row Layer    Max.-Head-Change    Column Row Layer    Max.-Flux-Residual            L2-New               L2-Old           Solver-Max-Delh
          0                 1           3           197   82     1       0.2541058948E+00     461  449    1       0.6230856777E+03      0.6086980777E+04      0.3202786703E+02      0.2541058948E+00
          0                 2           2           457  453     1       0.4894887713E-01     461  449    1      -0.6251974560E+02      0.6089863844E+03      0.6086980777E+04      0.4894887713E-01

    ------------------------------------------------
       NWT REQUIRED            2 OUTER ITERATIONS 
       AND A TOTAL OF          5 INNER ITERATIONS.
    ------------------------------------------------

 NO OUTPUT CONTROL FOR STRESS PERIOD   45   TIME STEP    5

 WELLS WITH REDUCED PUMPING FOR STRESS PERIOD    45 TIME STEP     5
   LAY   ROW   COL         APPL.Q          ACT.Q        GW-HEAD       CELL-BOT
     1    77   213  -0.728135E+03  -0.566376E+03   0.156319E+03   0.148000E+03
     1    92    77  -0.728135E+03  -0.427997E+03  -0.795309E+02  -0.930000E+02
     1    94    77  -0.728135E+03  -0.255647E+03  -0.929668E+02  -0.102000E+03
     1    94    73  -0.728135E+03  -0.263270E+03  -0.657934E+02  -0.740000E+02


 SOLVING FOR HEAD 
                                                   Max.-Head-Change                        Max.-Flux-Residual
  Residual-Control   Outer-Iter.   Inner-Iter.     Column Row Layer    Max.-Head-Change    Column Row Layer    Max.-Flux-Residual            L2-New               L2-Old           Solver-Max-Delh
          0                 1           3           197   82     1       0.2497329479E+00     197   82    1       0.6095541770E+03      0.5848368899E+04      0.3045147765E+02      0.2497329479E+00
          0                 2           2           457  453     1       0.4850134058E-01     197   82    1      -0.6096277367E+02      0.5850452736E+03      0.5848368899E+04      0.4850134058E-01

    ------------------------------------------------
       NWT REQUIRED            2 OUTER ITERATIONS 
       AND A TOTAL OF          5 INNER ITERATIONS.
    ------------------------------------------------

 NO OUTPUT CONTROL FOR STRESS PERIOD   45   TIME STEP    6

 WELLS WITH REDUCED PUMPING FOR STRESS PERIOD    45 TIME STEP     6
   LAY   ROW   COL         APPL.Q          ACT.Q        GW-HEAD       CELL-BOT
     1    77   213  -0.728135E+03  -0.574873E+03   0.156430E+03   0.148000E+03
     1    92    77  -0.728135E+03  -0.425339E+03  -0.795904E+02  -0.930000E+02
     1    94    77  -0.728135E+03  -0.257757E+03  -0.929213E+02  -0.102000E+03
     1    94    73  -0.728135E+03  -0.266913E+03  -0.657238E+02  -0.740000E+02


 SOLVING FOR HEAD 
                                                   Max.-Head-Change                        Max.-Flux-Residual
  Residual-Control   Outer-Iter.   Inner-Iter.     Column Row Layer    Max.-Head-Change    Column Row Layer    Max.-Flux-Residual            L2-New               L2-Old           Solver-Max-Delh
          0                 1           3           197   82     1       0.2454443554E+00     197   82    1       0.5990712296E+03      0.5654755846E+04      0.2925380051E+02      0.2454443554E+00
          0                 2           2           457  453     1       0.4804514248E-01     197   82    1      -0.5991428654E+02      0.5656529461E+03      0.5654755846E+04      0.4804514248E-01

    ------------------------------------------------
       NWT REQUIRED            2 OUTER ITERATIONS 
       AND A TOTAL OF          5 INNER ITERATIONS.
    ------------------------------------------------

 NO OUTPUT CONTROL FOR STRESS PERIOD   45   TIME STEP    7

 WELLS WITH REDUCED PUMPING FOR STRESS PERIOD    45 TIME STEP     7
   LAY   ROW   COL         APPL.Q          ACT.Q        GW-HEAD       CELL-BOT
     1    77   213  -0.728135E+03  -0.582913E+03   0.156536E+03   0.148000E+03
     1    92    77  -0.728135E+03  -0.423319E+03  -0.796355E+02  -0.930000E+02
     1    94    77  -0.728135E+03  -0.259830E+03  -0.928766E+02  -0.102000E+03
     1    94    73  -0.728135E+03  -0.270486E+03  -0.656556E+02  -0.740000E+02


 SOLVING FOR HEAD 
                                                   Max.-Head-Change                        Max.-Flux-Residual
  Residual-Control   Outer-Iter.   Inner-Iter.     Column Row Layer    Max.-Head-Change    Column Row Layer    Max.-Flux-Residual            L2-New               L2-Old           Solver-Max-Delh
          0                 1           3           197   82     1       0.2412384411E+00     197   82    1       0.5887902737E+03      0.5490531043E+04      0.2828383510E+02      0.2412384411E+00
          0                 2           2            48   86     1      -0.8474065712E-01     197   82    1      -0.5888600416E+02      0.5532837854E+03      0.5490531043E+04     -0.8474065712E-01

    ------------------------------------------------
       NWT REQUIRED            2 OUTER ITERATIONS 
       AND A TOTAL OF          5 INNER ITERATIONS.
    ------------------------------------------------

 NO OUTPUT CONTROL FOR STRESS PERIOD   45   TIME STEP    8

 WELLS WITH REDUCED PUMPING FOR STRESS PERIOD    45 TIME STEP     8
   LAY   ROW   COL         APPL.Q          ACT.Q        GW-HEAD       CELL-BOT
     1    77   213  -0.728135E+03  -0.590521E+03   0.156639E+03   0.148000E+03
     1    92    77  -0.728135E+03  -0.421769E+03  -0.796701E+02  -0.930000E+02
     1    94    77  -0.728135E+03  -0.261866E+03  -0.928329E+02  -0.102000E+03
     1    94    73  -0.728135E+03  -0.273990E+03  -0.655890E+02  -0.740000E+02


 SOLVING FOR HEAD 
                                                   Max.-Head-Change                        Max.-Flux-Residual
  Residual-Control   Outer-Iter.   Inner-Iter.     Column Row Layer    Max.-Head-Change    Column Row Layer    Max.-Flux-Residual            L2-New               L2-Old           Solver-Max-Delh
          0                 1           3           197   82     1       0.2371135218E+00     197   82    1       0.5787073138E+03      0.5346704624E+04      0.2766654261E+02      0.2371135218E+00
          0                 2           2           457  453     1       0.4710807868E-01     197   82    1      -0.5787752654E+02      0.5348092190E+03      0.5346704624E+04      0.4710807868E-01

    ------------------------------------------------
       NWT REQUIRED            2 OUTER ITERATIONS 
       AND A TOTAL OF          5 INNER ITERATIONS.
    ------------------------------------------------

 NO OUTPUT CONTROL FOR STRESS PERIOD   45   TIME STEP    9

 WELLS WITH REDUCED PUMPING FOR STRESS PERIOD    45 TIME STEP     9
   LAY   ROW   COL         APPL.Q          ACT.Q        GW-HEAD       CELL-BOT
     1    77   213  -0.728135E+03  -0.597721E+03   0.156738E+03   0.148000E+03
     1    92    77  -0.728135E+03  -0.420565E+03  -0.796970E+02  -0.930000E+02
     1    94    77  -0.728135E+03  -0.263865E+03  -0.927900E+02  -0.102000E+03
     1    94    73  -0.728135E+03  -0.277426E+03  -0.655237E+02  -0.740000E+02


 SOLVING FOR HEAD 
                                                   Max.-Head-Change                        Max.-Flux-Residual
  Residual-Control   Outer-Iter.   Inner-Iter.     Column Row Layer    Max.-Head-Change    Column Row Layer    Max.-Flux-Residual            L2-New               L2-Old           Solver-Max-Delh
          0                 1           3           197   82     1       0.2330679795E+00     197   82    1       0.5688184520E+03      0.5217902797E+04      0.2673969305E+02      0.2330679795E+00
          0                 2           2           457  453     1       0.4662787720E-01     197   82    1      -0.5688846362E+02      0.5219004075E+03      0.5217902797E+04      0.4662787720E-01

    ------------------------------------------------
       NWT REQUIRED            2 OUTER ITERATIONS 
       AND A TOTAL OF          5 INNER ITERATIONS.
    ------------------------------------------------

 OUTPUT CONTROL FOR STRESS PERIOD   45   TIME STEP   10
    SAVE HEAD FOR ALL LAYERS

 WELLS WITH REDUCED PUMPING FOR STRESS PERIOD    45 TIME STEP    10
   LAY   ROW   COL         APPL.Q          ACT.Q        GW-HEAD       CELL-BOT
     1    77   213  -0.728135E+03  -0.604534E+03   0.156834E+03   0.148000E+03
     1    92    77  -0.728135E+03  -0.419616E+03  -0.797182E+02  -0.930000E+02
     1    94    77  -0.728135E+03  -0.265828E+03  -0.927479E+02  -0.102000E+03
     1    94    73  -0.728135E+03  -0.280794E+03  -0.654599E+02  -0.740000E+02


 HEAD WILL BE SAVED ON UNIT   51 AT END OF TIME STEP   10, STRESS PERIOD   45
1
  VOLUMETRIC BUDGET FOR ENTIRE MODEL AT END OF TIME STEP   10, STRESS PERIOD  45
  ------------------------------------------------------------------------------

     CUMULATIVE VOLUMES      L**3       RATES FOR THIS TIME STEP      L**3/T
     ------------------                 ------------------------

           IN:                                      IN:
           ---                                      ---
             STORAGE =   479164704.0000               STORAGE =      122116.2656
       CONSTANT HEAD =    68896608.0000         CONSTANT HEAD =       51962.9375
               WELLS =           0.0000                 WELLS =           0.0000
              DRAINS =           0.0000                DRAINS =           0.0000
                  ET =           0.0000                    ET =           0.0000
            RECHARGE =   253954096.0000              RECHARGE =      222003.7188

            TOTAL IN =   802015424.0000              TOTAL IN =      396082.9375

          OUT:                                     OUT:
          ----                                     ----
             STORAGE =   165568480.0000               STORAGE =       93676.1484
       CONSTANT HEAD =           0.0000         CONSTANT HEAD =           0.0000
               WELLS =   418167296.0000                 WELLS =      141769.5938
              DRAINS =   152717088.0000                DRAINS =      116043.4688
                  ET =    64555720.0000                    ET =       44454.0781
            RECHARGE =       81860.0000              RECHARGE =           0.0000

           TOTAL OUT =   801090432.0000             TOTAL OUT =      395943.3125

            IN - OUT =      924992.0000              IN - OUT =         139.6250

 PERCENT DISCREPANCY =           0.12     PERCENT DISCREPANCY =           0.04






         TIME SUMMARY AT END OF TIME STEP   10 IN STRESS PERIOD   45
                    SECONDS     MINUTES      HOURS       DAYS        YEARS
                    -----------------------------------------------------------
   TIME STEP LENGTH 2.62656E+05  4377.6      72.960      3.0400     8.32307E-03
 STRESS PERIOD TIME 2.62656E+06  43776.      729.60      30.400     8.32307E-02
         TOTAL TIME 1.18195E+08 1.96992E+06  32832.      1368.0      3.7454    
1
1
                            STRESS PERIOD NO.   46, LENGTH =   30.40000    
                            -----------------------------------------------

                              NUMBER OF TIME STEPS =    10

                               MULTIPLIER FOR DELT =     1.000

                            INITIAL TIME STEP SIZE =   3.040000    

 WELL NO.  LAYER   ROW   COL   STRESS RATE         
 --------------------------------------------------
      1      1     69    225      -3888.    
      2      1     71    224       0.000    
      3      1     74    220       0.000    
      4      1     73    220       0.000    
      5      1     71    223       0.000    
      6      1     71    223       0.000    
      7      1     72    223       0.000    
      8      1     92    173       0.000    
      9      1     94    174       0.000    
     10      1     93    175       0.000    
     11      1    203    328       0.000    
     12      1    438    460      -2360.    
     13      1    436    461      -2360.    
     14      1    410    454      -2360.    
     15      1    433    460      -2360.    
     16      1    431    462      -2360.    
     17      1    417    459      -2360.    
     18      1    418    458      -2360.    
     19      1    414    455      -2360.    
     20      1    443    464      -2360.    
     21      1    379    425      -2360.    
     22      1    362    405      -2360.    
     23      1    361    405      -2360.    
     24      1    362    406      -2360.    
     25      1    363    408      -2360.    
     26      1    364    410      -2360.    
     27      1    369    418      -2360.    
     28      1    367    417      -2360.    
     29      1    365    415      -2360.    
     30      1    402    447      -2360.    
     31      1    400    446      -2360.    
     32      1    392    444      -2360.    
     33      1    391    441      -2360.    
     34      1    403    448      -2360.    
     35      1    405    447      -2360.    
     36      1    362    410      -2360.    
     37      1    362    411      -2360.    
     38      1    363    412      -2360.    
     39      1    375    421      -2360.    
     40      1    383    430      -2360.    
     41      1    397    445      -2360.    
     42      1    360    403      -2360.    
     43      1    350    401      -2360.    
     44      1    346    393      -2540.    
     45      1    333    387      -2540.    
     46      1    328    384      -2540.    
     47      1    326    383      -2540.    
     48      1    323    378      -2540.    
     49      1    321    378      -2540.    
     50      1    322    376      -2540.    
     51      1    316    374      -2540.    
     52      1    311    371      -2540.    
     53      1    307    369      -2540.    
     54      1    305    368      -2540.    
     55      1    303    368      -2540.    
     56      1    300    369      -2540.    
     57      1    293    364      -2540.    
     58      1    292    362      -2540.    
     59      1    278    350      -2540.    
     60      1    274    351      -2540.    
     61      1    273    350      -2540.    
     62      1    271    350      -2540.    
     63      1    267    348      -2540.    
     64      1    263    348      -2540.    
     65      1    263    348      -2540.    
     66      1    248    347      -2540.    
     67      1    243    342      -2540.    
     68      1    242    339      -2540.    
     69      1    238    341      -2540.    
     70      1    233    340      -2540.    
     71      1    232    340      -2540.    
     72      1    229    341      -2540.    
     73      1    227    341      -2540.    
     74      1    219    342      -2540.    
     75      1    219    336      -2540.    
     76      1    199    329      -2540.    
     77      1    191    332      -978.4    
     78      1    190    332      -978.4    
     79      1    130    310      -978.4    
     80      1    123    305      -978.4    
     81      1    104    289      -978.4    
     82      1     96    287      -4290.    
     83      1     95    284      -4290.    
     84      1     95    280      -4290.    
     85      1     93    276      -4290.    
     86      1     94    275      -4290.    
     87      1     90    277      -4290.    
     88      1     90    273      -4290.    
     89      1     86    271      -4290.    
     90      1     85    270      -4290.    
     91      1     84    265      -4290.    
     92      1     85    265      -4290.    
     93      1     84    264      -4290.    
     94      1     79    263      -4290.    
     95      1     79    263      -4290.    
     96      1     76    262      -4290.    
     97      1     73    257      -4290.    
     98      1     74    255      -4290.    
     99      1     71    255      -4290.    
    100      1     66    253      -4290.    
    101      1     68    252      -4290.    
    102      1     69    250      -4290.    
    103      1     65    248      -4290.    
    104      1     68    248      -4290.    
    105      1     69    247      -4290.    
    106      1     73    247      -4290.    
    107      1     64    246      -4290.    
    108      1     69    245      -4290.    
    109      1     72    245      -4290.    
    110      1     69    241      -4290.    
    111      1     73    238      -4290.    
    112      1     70    238      -4290.    
    113      1     76    263      -4290.    
    114      1     66    232      -2310.    
    115      1     69    229      -2310.    
    116      1     71    228      -2310.    
    117      1     69    227      -2310.    
    118      1     72    219      -2310.    
    119      1     72    218      -2310.    
    120      1     72    218      -2310.    
    121      1     73    217      -2310.    
    122      1     77    219      -2310.    
    123      1     78    219      -2310.    
    124      1     83    213      -2310.    
    125      1     77    213      -2310.    
    126      1     81    211      -2310.    
    127      1     81    210      -2310.    
    128      1     81    210      -2310.    
    129      1     82    208      -2310.    
    130      1     80    205      -2310.    
    131      1     86    202      -2310.    
    132      1     84    200      -2310.    
    133      1     89    200      -2310.    
    134      1     89    199      -2310.    
    135      1     88    199      -2310.    
    136      1     86    199      -2310.    
    137      1     85    199      -2310.    
    138      1     82    197      -2310.    
    139      1     86    197      -2310.    
    140      1     88    198      -2310.    
    141      1     90    192      -2310.    
    142      1     89    191      -2310.    
    143      1     84    192      -2310.    
    144      1     91    189      -2310.    
    145      1     92    185      -2310.    
    146      1     87    183      -2310.    
    147      1     92    182      -2310.    
    148      1     90    182      -2310.    
    149      1     88    179      -2310.    
    150      1     89    176      -2310.    
    151      1     92    172      -2310.    
    152      1     93    164      -2310.    
    153      1     94    162      -2310.    
    154      1    103    156      -2310.    
    155      1    103    156      -2310.    
    156      1     96    154      -2310.    
    157      1     97    153      -2310.    
    158      1    122    139      -2310.    
    159      1     92     77      -2310.    
    160      1     94     77      -2310.    
    161      1     94     73      -2310.    
    162      1     97    152      -2310.    
    163      1    118    337      -666.7    
    164      1    133    319      -2678.    
    165      1    131    320      -3951.    
    166      1    133    321      -2956.    
    167      1    161    329      -2141.    
    168      1    178    330      -551.0    
    169      1    163    330      -1122.    
    170      1    131    320      -2473.    
    171      1    129    315      -3937.    
    172      1    162    329      -1959.    
    173      1    131    311      -826.1    
    174      1    221    340      -1994.    
    175      1    220    340      -1034.    
    176      1    221    340      -667.7    
    177      1    137    322      -2082.    
    178      1    137    321      -1407.    
    179      1    185    329      -2012.    
    180      1    183    329      -1473.    
    181      1    175    329      -585.3    
    182      1     79    243      -1490.    
    183      1     77    245      -2414.    
    184      1    199    329      -1617.    
    185      1    198    330      -2514.    
    186      1    140    328      -972.1    
    187      1    143    327      -863.6    
    188      1    139    327      -1331.    

    188 WELLS

 REUSING NON-PARAMETER DRAINS FROM LAST STRESS PERIOD

   1061 DRAINS

 REUSING SURF FROM LAST STRESS PERIOD

 REUSING EVTR FROM LAST STRESS PERIOD

 REUSING EXDP FROM LAST STRESS PERIOD



                           RECHARGE
 READING ON UNIT   19 WITH FORMAT: (510E15.6)          

 SOLVING FOR HEAD 
                                                   Max.-Head-Change                        Max.-Flux-Residual
  Residual-Control   Outer-Iter.   Inner-Iter.     Column Row Layer    Max.-Head-Change    Column Row Layer    Max.-Flux-Residual            L2-New               L2-Old           Solver-Max-Delh
          0                 1           3           263   79     1      -0.1867722832E+02     263   79    1      -0.6465625701E+04      0.2701782472E+05      0.2609574130E+02     -0.1867722832E+02
          0                 2           3           263   79     1       0.1427069015E+01     238   70    1       0.5890325004E+03      0.2728403092E+04      0.2701782472E+05      0.1427069015E+01
          0                 3           2           263   79     1       0.6976611581E-01     238   70    1       0.2942214376E+02      0.1366670182E+03      0.2728403092E+04      0.6976611581E-01

    ------------------------------------------------
       NWT REQUIRED            3 OUTER ITERATIONS 
       AND A TOTAL OF          8 INNER ITERATIONS.
    ------------------------------------------------

 NO OUTPUT CONTROL FOR STRESS PERIOD   46   TIME STEP    1

 WELLS WITH REDUCED PUMPING FOR STRESS PERIOD    46 TIME STEP     1
   LAY   ROW   COL         APPL.Q          ACT.Q        GW-HEAD       CELL-BOT
     1    77   213  -0.230952E+04  -0.183361E+04   0.156472E+03   0.148000E+03
     1    92    77  -0.230952E+04  -0.873791E+03  -0.829208E+02  -0.930000E+02
     1    94    77  -0.230952E+04  -0.819515E+03  -0.929080E+02  -0.102000E+03
     1    94    73  -0.230952E+04  -0.865513E+03  -0.656102E+02  -0.740000E+02


 SOLVING FOR HEAD 
                                                   Max.-Head-Change                        Max.-Flux-Residual
  Residual-Control   Outer-Iter.   Inner-Iter.     Column Row Layer    Max.-Head-Change    Column Row Layer    Max.-Flux-Residual            L2-New               L2-Old           Solver-Max-Delh
          0                 1           3           263   79     1      -0.7785613762E+01     273   90    1      -0.2482930883E+04      0.1404772520E+05      0.1366670182E+03     -0.7785613762E+01
          0                 2           3           263   79     1       0.6251777312E+00     273   90    1       0.2472813396E+03      0.1408111639E+04      0.1404772520E+05      0.6251777312E+00
          0                 3           2           458  452     1       0.4477671725E-01     273   90    1       0.1235651850E+02      0.7081129795E+02      0.1408111639E+04      0.4477671725E-01

    ------------------------------------------------
       NWT REQUIRED            3 OUTER ITERATIONS 
       AND A TOTAL OF          8 INNER ITERATIONS.
    ------------------------------------------------

 NO OUTPUT CONTROL FOR STRESS PERIOD   46   TIME STEP    2

 WELLS WITH REDUCED PUMPING FOR STRESS PERIOD    46 TIME STEP     2
   LAY   ROW   COL         APPL.Q          ACT.Q        GW-HEAD       CELL-BOT
     1    77   213  -0.230952E+04  -0.175260E+04   0.156143E+03   0.148000E+03
     1    92    77  -0.230952E+04  -0.660817E+03  -0.844867E+02  -0.930000E+02
     1    94    77  -0.230952E+04  -0.797252E+03  -0.930596E+02  -0.102000E+03
     1    94    73  -0.230952E+04  -0.842021E+03  -0.657514E+02  -0.740000E+02


 SOLVING FOR HEAD 
                                                   Max.-Head-Change                        Max.-Flux-Residual
  Residual-Control   Outer-Iter.   Inner-Iter.     Column Row Layer    Max.-Head-Change    Column Row Layer    Max.-Flux-Residual            L2-New               L2-Old           Solver-Max-Delh
          0                 1           3           263   79     1      -0.3597569935E+01     156  103    1      -0.1977622760E+04      0.1185163819E+05      0.7081129795E+02     -0.3597569935E+01
          0                 2           2           263   79     1       0.2980906314E+00     156  103    1       0.1976231201E+03      0.1186993118E+04      0.1185163819E+05      0.2980906314E+00
          0                 3           2           458  452     1       0.4408661543E-01     156  103    1       0.9880113621E+01      0.5934277680E+02      0.1186993118E+04      0.4408661543E-01

    ------------------------------------------------
       NWT REQUIRED            3 OUTER ITERATIONS 
       AND A TOTAL OF          7 INNER ITERATIONS.
    ------------------------------------------------

 NO OUTPUT CONTROL FOR STRESS PERIOD   46   TIME STEP    3

 WELLS WITH REDUCED PUMPING FOR STRESS PERIOD    46 TIME STEP     3
   LAY   ROW   COL         APPL.Q          ACT.Q        GW-HEAD       CELL-BOT
     1    77   213  -0.230952E+04  -0.167578E+04   0.155843E+03   0.148000E+03
     1    92    77  -0.230952E+04  -0.559804E+03  -0.852735E+02  -0.930000E+02
     1    94    77  -0.230952E+04  -0.776289E+03  -0.932032E+02  -0.102000E+03
     1    94    73  -0.230952E+04  -0.820046E+03  -0.658841E+02  -0.740000E+02


 SOLVING FOR HEAD 
                                                   Max.-Head-Change                        Max.-Flux-Residual
  Residual-Control   Outer-Iter.   Inner-Iter.     Column Row Layer    Max.-Head-Change    Column Row Layer    Max.-Flux-Residual            L2-New               L2-Old           Solver-Max-Delh
          0                 1           3           263   79     1      -0.1888118800E+01     156  103    1      -0.1624959519E+04      0.1079192763E+05      0.5934277680E+02     -0.1888118800E+01
          0                 2           2           263   79     1       0.1592432344E+00     156  103    1       0.1623792510E+03      0.1079948289E+04      0.1079192763E+05      0.1592432344E+00
          0                 3           2           458  452     1       0.4339505295E-01     156  103    1       0.8118088492E+01      0.5399598244E+02      0.1079948289E+04      0.4339505295E-01

    ------------------------------------------------
       NWT REQUIRED            3 OUTER ITERATIONS 
       AND A TOTAL OF          7 INNER ITERATIONS.
    ------------------------------------------------

 NO OUTPUT CONTROL FOR STRESS PERIOD   46   TIME STEP    4

 WELLS WITH REDUCED PUMPING FOR STRESS PERIOD    46 TIME STEP     4
   LAY   ROW   COL         APPL.Q          ACT.Q        GW-HEAD       CELL-BOT
     1    77   213  -0.230952E+04  -0.160393E+04   0.155573E+03   0.148000E+03
     1    92    77  -0.230952E+04  -0.510101E+03  -0.856762E+02  -0.930000E+02
     1    94    77  -0.230952E+04  -0.756544E+03  -0.933392E+02  -0.102000E+03
     1    94    73  -0.230952E+04  -0.799487E+03  -0.660090E+02  -0.740000E+02


 SOLVING FOR HEAD 
                                                   Max.-Head-Change                        Max.-Flux-Residual
  Residual-Control   Outer-Iter.   Inner-Iter.     Column Row Layer    Max.-Head-Change    Column Row Layer    Max.-Flux-Residual            L2-New               L2-Old           Solver-Max-Delh
          0                 1           3           263   78     1      -0.1138695202E+01     156  103    1      -0.1347639618E+04      0.1012980552E+05      0.5399598244E+02     -0.1138695202E+01
          0                 2           2           263   78     1       0.9710559095E-01     156  103    1       0.1346694133E+03      0.1012950048E+04      0.1012980552E+05      0.9710559095E-01

    ------------------------------------------------
       NWT REQUIRED            2 OUTER ITERATIONS 
       AND A TOTAL OF          5 INNER ITERATIONS.
    ------------------------------------------------

 NO OUTPUT CONTROL FOR STRESS PERIOD   46   TIME STEP    5

 WELLS WITH REDUCED PUMPING FOR STRESS PERIOD    46 TIME STEP     5
   LAY   ROW   COL         APPL.Q          ACT.Q        GW-HEAD       CELL-BOT
     1    77   213  -0.230952E+04  -0.153709E+04   0.155327E+03   0.148000E+03
     1    92    77  -0.230952E+04  -0.484872E+03  -0.858854E+02  -0.930000E+02
     1    94    77  -0.230952E+04  -0.737853E+03  -0.934686E+02  -0.102000E+03
     1    94    73  -0.230952E+04  -0.780154E+03  -0.661271E+02  -0.740000E+02


 SOLVING FOR HEAD 
                                                   Max.-Head-Change                        Max.-Flux-Residual
  Residual-Control   Outer-Iter.   Inner-Iter.     Column Row Layer    Max.-Head-Change    Column Row Layer    Max.-Flux-Residual            L2-New               L2-Old           Solver-Max-Delh
          0                 1           3           264   78     1      -0.9288080083E+00     156  103    1      -0.1126989001E+04      0.9659074142E+04      0.5064918304E+02     -0.9288080083E+00
          0                 2           2           264   78     1       0.7900559226E-01     156  103    1       0.1126237645E+03      0.9662381606E+03      0.9659074142E+04      0.7900559226E-01

    ------------------------------------------------
       NWT REQUIRED            2 OUTER ITERATIONS 
       AND A TOTAL OF          5 INNER ITERATIONS.
    ------------------------------------------------

 NO OUTPUT CONTROL FOR STRESS PERIOD   46   TIME STEP    6

 WELLS WITH REDUCED PUMPING FOR STRESS PERIOD    46 TIME STEP     6
   LAY   ROW   COL         APPL.Q          ACT.Q        GW-HEAD       CELL-BOT
     1    77   213  -0.230952E+04  -0.147574E+04   0.155106E+03   0.148000E+03
     1    92    77  -0.230952E+04  -0.471971E+03  -0.859937E+02  -0.930000E+02
     1    94    77  -0.230952E+04  -0.720243E+03  -0.935914E+02  -0.102000E+03
     1    94    73  -0.230952E+04  -0.762060E+03  -0.662381E+02  -0.740000E+02


 SOLVING FOR HEAD 
                                                   Max.-Head-Change                        Max.-Flux-Residual
  Residual-Control   Outer-Iter.   Inner-Iter.     Column Row Layer    Max.-Head-Change    Column Row Layer    Max.-Flux-Residual            L2-New               L2-Old           Solver-Max-Delh
          0                 1           3           264   78     1      -0.7904227443E+00     156  103    1      -0.9512256190E+03      0.9299824800E+04      0.4831231337E+02     -0.7904227443E+00
          0                 2           2            54   88     1      -0.8014798807E-01     156  103    1       0.9506338188E+02      0.9320389141E+03      0.9299824800E+04     -0.8014798807E-01

    ------------------------------------------------
       NWT REQUIRED            2 OUTER ITERATIONS 
       AND A TOTAL OF          5 INNER ITERATIONS.
    ------------------------------------------------

 NO OUTPUT CONTROL FOR STRESS PERIOD   46   TIME STEP    7

 WELLS WITH REDUCED PUMPING FOR STRESS PERIOD    46 TIME STEP     7
   LAY   ROW   COL         APPL.Q          ACT.Q        GW-HEAD       CELL-BOT
     1    77   213  -0.230952E+04  -0.141976E+04   0.154906E+03   0.148000E+03
     1    92    77  -0.230952E+04  -0.465318E+03  -0.860500E+02  -0.930000E+02
     1    94    77  -0.230952E+04  -0.703646E+03  -0.937077E+02  -0.102000E+03
     1    94    73  -0.230952E+04  -0.745120E+03  -0.663426E+02  -0.740000E+02


 SOLVING FOR HEAD 
                                                   Max.-Head-Change                        Max.-Flux-Residual
  Residual-Control   Outer-Iter.   Inner-Iter.     Column Row Layer    Max.-Head-Change    Column Row Layer    Max.-Flux-Residual            L2-New               L2-Old           Solver-Max-Delh
          0                 1           3           264   78     1      -0.6760481570E+00     213   83    1      -0.9215577562E+03      0.9010910832E+04      0.4661134314E+02     -0.6760481570E+00
          0                 2           2           264   78     1       0.5765578198E-01     213   83    1       0.9213086173E+02      0.9011863607E+03      0.9010910832E+04      0.5765578198E-01

    ------------------------------------------------
       NWT REQUIRED            2 OUTER ITERATIONS 
       AND A TOTAL OF          5 INNER ITERATIONS.
    ------------------------------------------------

 NO OUTPUT CONTROL FOR STRESS PERIOD   46   TIME STEP    8

 WELLS WITH REDUCED PUMPING FOR STRESS PERIOD    46 TIME STEP     8
   LAY   ROW   COL         APPL.Q          ACT.Q        GW-HEAD       CELL-BOT
     1    77   213  -0.230952E+04  -0.136891E+04   0.154727E+03   0.148000E+03
     1    92    77  -0.230952E+04  -0.461871E+03  -0.860792E+02  -0.930000E+02
     1    94    77  -0.230952E+04  -0.687997E+03  -0.938180E+02  -0.102000E+03
     1    94    73  -0.230952E+04  -0.729253E+03  -0.664410E+02  -0.740000E+02


 SOLVING FOR HEAD 
                                                   Max.-Head-Change                        Max.-Flux-Residual
  Residual-Control   Outer-Iter.   Inner-Iter.     Column Row Layer    Max.-Head-Change    Column Row Layer    Max.-Flux-Residual            L2-New               L2-Old           Solver-Max-Delh
          0                 1           3           264   78     1      -0.5837365454E+00     213   83    1      -0.9066167648E+03      0.8769732738E+04      0.4506008496E+02     -0.5837365454E+00
          0                 2           2           264   78     1       0.4986826283E-01     213   83    1       0.9063728355E+02      0.8771052735E+03      0.8769732738E+04      0.4986826283E-01

    ------------------------------------------------
       NWT REQUIRED            2 OUTER ITERATIONS 
       AND A TOTAL OF          5 INNER ITERATIONS.
    ------------------------------------------------

 NO OUTPUT CONTROL FOR STRESS PERIOD   46   TIME STEP    9

 WELLS WITH REDUCED PUMPING FOR STRESS PERIOD    46 TIME STEP     9
   LAY   ROW   COL         APPL.Q          ACT.Q        GW-HEAD       CELL-BOT
     1    77   213  -0.230952E+04  -0.132286E+04   0.154566E+03   0.148000E+03
     1    92    77  -0.230952E+04  -0.460083E+03  -0.860944E+02  -0.930000E+02
     1    94    77  -0.230952E+04  -0.673237E+03  -0.939226E+02  -0.102000E+03
     1    94    73  -0.230952E+04  -0.714387E+03  -0.665337E+02  -0.740000E+02


 SOLVING FOR HEAD 
                                                   Max.-Head-Change                        Max.-Flux-Residual
  Residual-Control   Outer-Iter.   Inner-Iter.     Column Row Layer    Max.-Head-Change    Column Row Layer    Max.-Flux-Residual            L2-New               L2-Old           Solver-Max-Delh
          0                 1           3           264   78     1      -0.5097326313E+00     213   83    1      -0.8920252596E+03      0.8562370147E+04      0.4385607439E+02     -0.5097326313E+00
          0                 2           2           264   78     1       0.4361414724E-01     213   83    1       0.8917865163E+02      0.8564048029E+03      0.8562370147E+04      0.4361414724E-01

    ------------------------------------------------
       NWT REQUIRED            2 OUTER ITERATIONS 
       AND A TOTAL OF          5 INNER ITERATIONS.
    ------------------------------------------------

 OUTPUT CONTROL FOR STRESS PERIOD   46   TIME STEP   10
    SAVE HEAD FOR ALL LAYERS

 WELLS WITH REDUCED PUMPING FOR STRESS PERIOD    46 TIME STEP    10
   LAY   ROW   COL         APPL.Q          ACT.Q        GW-HEAD       CELL-BOT
     1    77   213  -0.230952E+04  -0.128128E+04   0.154421E+03   0.148000E+03
     1    92    77  -0.230952E+04  -0.459155E+03  -0.861023E+02  -0.930000E+02
     1    94    77  -0.230952E+04  -0.659310E+03  -0.940219E+02  -0.102000E+03
     1    94    73  -0.230952E+04  -0.700451E+03  -0.666209E+02  -0.740000E+02


 HEAD WILL BE SAVED ON UNIT   51 AT END OF TIME STEP   10, STRESS PERIOD   46
1
  VOLUMETRIC BUDGET FOR ENTIRE MODEL AT END OF TIME STEP   10, STRESS PERIOD  46
  ------------------------------------------------------------------------------

     CUMULATIVE VOLUMES      L**3       RATES FOR THIS TIME STEP      L**3/T
     ------------------                 ------------------------

           IN:                                      IN:
           ---                                      ---
             STORAGE =   487054624.0000               STORAGE =      248251.0156
       CONSTANT HEAD =    70476520.0000         CONSTANT HEAD =       51977.3320
               WELLS =           0.0000                 WELLS =           0.0000
              DRAINS =           0.0000                DRAINS =           0.0000
                  ET =           0.0000                    ET =           0.0000
            RECHARGE =   265460656.0000              RECHARGE =      378504.9062

            TOTAL IN =   822991808.0000              TOTAL IN =      678733.2500

          OUT:                                     OUT:
          ----                                     ----
             STORAGE =   169343664.0000               STORAGE =      113375.4453
       CONSTANT HEAD =           0.0000         CONSTANT HEAD =           0.0000
               WELLS =   430495264.0000                 WELLS =      405048.0938
              DRAINS =   156189792.0000                DRAINS =      113537.1875
                  ET =    65943592.0000                    ET =       46101.7148
            RECHARGE =       81860.0000              RECHARGE =           0.0000

           TOTAL OUT =   822054144.0000             TOTAL OUT =      678062.4375

            IN - OUT =      937664.0000              IN - OUT =         670.8125

 PERCENT DISCREPANCY =           0.11     PERCENT DISCREPANCY =           0.10






         TIME SUMMARY AT END OF TIME STEP   10 IN STRESS PERIOD   46
                    SECONDS     MINUTES      HOURS       DAYS        YEARS
                    -----------------------------------------------------------
   TIME STEP LENGTH 2.62656E+05  4377.6      72.960      3.0400     8.32307E-03
 STRESS PERIOD TIME 2.62656E+06  43776.      729.60      30.400     8.32307E-02
         TOTAL TIME 1.20822E+08 2.01370E+06  33562.      1398.4      3.8286    
1
1
                            STRESS PERIOD NO.   47, LENGTH =   30.40000    
                            -----------------------------------------------

                              NUMBER OF TIME STEPS =    10

                               MULTIPLIER FOR DELT =     1.000

                            INITIAL TIME STEP SIZE =   3.040000    

 WELL NO.  LAYER   ROW   COL   STRESS RATE         
 --------------------------------------------------
      1      1     69    225      -3974.    
      2      1     71    224       0.000    
      3      1     74    220       0.000    
      4      1     73    220       0.000    
      5      1     71    223       0.000    
      6      1     71    223       0.000    
      7      1     72    223       0.000    
      8      1     92    173       0.000    
      9      1     94    174       0.000    
     10      1     93    175       0.000    
     11      1    203    328       0.000    
     12      1    438    460      -2014.    
     13      1    436    461      -2014.    
     14      1    410    454      -2014.    
     15      1    433    460      -2014.    
     16      1    431    462      -2014.    
     17      1    417    459      -2014.    
     18      1    418    458      -2014.    
     19      1    414    455      -2014.    
     20      1    443    464      -2014.    
     21      1    379    425      -2014.    
     22      1    362    405      -2014.    
     23      1    361    405      -2014.    
     24      1    362    406      -2014.    
     25      1    363    408      -2014.    
     26      1    364    410      -2014.    
     27      1    369    418      -2014.    
     28      1    367    417      -2014.    
     29      1    365    415      -2014.    
     30      1    402    447      -2014.    
     31      1    400    446      -2014.    
     32      1    392    444      -2014.    
     33      1    391    441      -2014.    
     34      1    403    448      -2014.    
     35      1    405    447      -2014.    
     36      1    362    410      -2014.    
     37      1    362    411      -2014.    
     38      1    363    412      -2014.    
     39      1    375    421      -2014.    
     40      1    383    430      -2014.    
     41      1    397    445      -2014.    
     42      1    360    403      -2014.    
     43      1    350    401      -2014.    
     44      1    346    393      -2193.    
     45      1    333    387      -2193.    
     46      1    328    384      -2193.    
     47      1    326    383      -2193.    
     48      1    323    378      -2193.    
     49      1    321    378      -2193.    
     50      1    322    376      -2193.    
     51      1    316    374      -2193.    
     52      1    311    371      -2193.    
     53      1    307    369      -2193.    
     54      1    305    368      -2193.    
     55      1    303    368      -2193.    
     56      1    300    369      -2193.    
     57      1    293    364      -2193.    
     58      1    292    362      -2193.    
     59      1    278    350      -2193.    
     60      1    274    351      -2193.    
     61      1    273    350      -2193.    
     62      1    271    350      -2193.    
     63      1    267    348      -2193.    
     64      1    263    348      -2193.    
     65      1    263    348      -2193.    
     66      1    248    347      -2193.    
     67      1    243    342      -2193.    
     68      1    242    339      -2193.    
     69      1    238    341      -2193.    
     70      1    233    340      -2193.    
     71      1    232    340      -2193.    
     72      1    229    341      -2193.    
     73      1    227    341      -2193.    
     74      1    219    342      -2193.    
     75      1    219    336      -2193.    
     76      1    199    329      -2193.    
     77      1    191    332      -0.000    
     78      1    190    332      -0.000    
     79      1    130    310      -0.000    
     80      1    123    305      -0.000    
     81      1    104    289      -0.000    
     82      1     96    287      -3788.    
     83      1     95    284      -3788.    
     84      1     95    280      -3788.    
     85      1     93    276      -3788.    
     86      1     94    275      -3788.    
     87      1     90    277      -3788.    
     88      1     90    273      -3788.    
     89      1     86    271      -3788.    
     90      1     85    270      -3788.    
     91      1     84    265      -3788.    
     92      1     85    265      -3788.    
     93      1     84    264      -3788.    
     94      1     79    263      -3788.    
     95      1     79    263      -3788.    
     96      1     76    262      -3788.    
     97      1     73    257      -3788.    
     98      1     74    255      -3788.    
     99      1     71    255      -3788.    
    100      1     66    253      -3788.    
    101      1     68    252      -3788.    
    102      1     69    250      -3788.    
    103      1     65    248      -3788.    
    104      1     68    248      -3788.    
    105      1     69    247      -3788.    
    106      1     73    247      -3788.    
    107      1     64    246      -3788.    
    108      1     69    245      -3788.    
    109      1     72    245      -3788.    
    110      1     69    241      -3788.    
    111      1     73    238      -3788.    
    112      1     70    238      -3788.    
    113      1     76    263      -3788.    
    114      1     66    232      -2343.    
    115      1     69    229      -2343.    
    116      1     71    228      -2343.    
    117      1     69    227      -2343.    
    118      1     72    219      -2343.    
    119      1     72    218      -2343.    
    120      1     72    218      -2343.    
    121      1     73    217      -2343.    
    122      1     77    219      -2343.    
    123      1     78    219      -2343.    
    124      1     83    213      -2343.    
    125      1     77    213      -2343.    
    126      1     81    211      -2343.    
    127      1     81    210      -2343.    
    128      1     81    210      -2343.    
    129      1     82    208      -2343.    
    130      1     80    205      -2343.    
    131      1     86    202      -2343.    
    132      1     84    200      -2343.    
    133      1     89    200      -2343.    
    134      1     89    199      -2343.    
    135      1     88    199      -2343.    
    136      1     86    199      -2343.    
    137      1     85    199      -2343.    
    138      1     82    197      -2343.    
    139      1     86    197      -2343.    
    140      1     88    198      -2343.    
    141      1     90    192      -2343.    
    142      1     89    191      -2343.    
    143      1     84    192      -2343.    
    144      1     91    189      -2343.    
    145      1     92    185      -2343.    
    146      1     87    183      -2343.    
    147      1     92    182      -2343.    
    148      1     90    182      -2343.    
    149      1     88    179      -2343.    
    150      1     89    176      -2343.    
    151      1     92    172      -2343.    
    152      1     93    164      -2343.    
    153      1     94    162      -2343.    
    154      1    103    156      -2343.    
    155      1    103    156      -2343.    
    156      1     96    154      -2343.    
    157      1     97    153      -2343.    
    158      1    122    139      -2343.    
    159      1     92     77      -2343.    
    160      1     94     77      -2343.    
    161      1     94     73      -2343.    
    162      1     97    152      -2343.    
    163      1    118    337      -666.7    
    164      1    133    319      -2678.    
    165      1    131    320      -3951.    
    166      1    133    321      -2956.    
    167      1    161    329      -2141.    
    168      1    178    330      -551.0    
    169      1    163    330      -1122.    
    170      1    131    320      -2473.    
    171      1    129    315      -3937.    
    172      1    162    329      -1959.    
    173      1    131    311      -826.1    
    174      1    221    340      -1994.    
    175      1    220    340      -1034.    
    176      1    221    340      -667.7    
    177      1    137    322      -2082.    
    178      1    137    321      -1407.    
    179      1    185    329      -2012.    
    180      1    183    329      -1473.    
    181      1    175    329      -585.3    
    182      1     79    243      -1490.    
    183      1     77    245      -2414.    
    184      1    199    329      -1617.    
    185      1    198    330      -2514.    
    186      1    140    328      -972.1    
    187      1    143    327      -863.6    
    188      1    139    327      -1331.    

    188 WELLS

 REUSING NON-PARAMETER DRAINS FROM LAST STRESS PERIOD

   1061 DRAINS

 REUSING SURF FROM LAST STRESS PERIOD

 REUSING EVTR FROM LAST STRESS PERIOD

 REUSING EXDP FROM LAST STRESS PERIOD



                           RECHARGE
 READING ON UNIT   19 WITH FORMAT: (510E15.6)          

 SOLVING FOR HEAD 
                                                   Max.-Head-Change                        Max.-Flux-Residual
  Residual-Control   Outer-Iter.   Inner-Iter.     Column Row Layer    Max.-Head-Change    Column Row Layer    Max.-Flux-Residual            L2-New               L2-Old           Solver-Max-Delh
          0                 1           3           263   79     1       0.2728123211E+01     464  453    1       0.1089442403E+04      0.1087964144E+05      0.4282104966E+02      0.2728123211E+01
          0                 2           2           263   79     1      -0.2366951919E+00     466  452    1      -0.1482218523E+03      0.1098659007E+04      0.1087964144E+05     -0.2366951919E+00
          0                 3           2           458  452     1       0.4073940059E-01     466  452    1      -0.7417943783E+01      0.5496253225E+02      0.1098659007E+04      0.4073940059E-01

    ------------------------------------------------
       NWT REQUIRED            3 OUTER ITERATIONS 
       AND A TOTAL OF          7 INNER ITERATIONS.
    ------------------------------------------------

 NO OUTPUT CONTROL FOR STRESS PERIOD   47   TIME STEP    1

 WELLS WITH REDUCED PUMPING FOR STRESS PERIOD    47 TIME STEP     1
   LAY   ROW   COL         APPL.Q          ACT.Q        GW-HEAD       CELL-BOT
     1    77   213  -0.234339E+04  -0.126044E+04   0.154286E+03   0.148000E+03
     1    92    77  -0.234339E+04  -0.462479E+03  -0.861310E+02  -0.930000E+02
     1    94    77  -0.234339E+04  -0.655243E+03  -0.941190E+02  -0.102000E+03
     1    94    73  -0.234339E+04  -0.696973E+03  -0.667063E+02  -0.740000E+02


 SOLVING FOR HEAD 
                                                   Max.-Head-Change                        Max.-Flux-Residual
  Residual-Control   Outer-Iter.   Inner-Iter.     Column Row Layer    Max.-Head-Change    Column Row Layer    Max.-Flux-Residual            L2-New               L2-Old           Solver-Max-Delh
          0                 1           3           263   79     1       0.9830248114E+00     461  450    1       0.9575998596E+03      0.9726051211E+04      0.5496253225E+02      0.9830248114E+00
          0                 2           2           263   79     1      -0.8479792697E-01     461  450    1      -0.9633581132E+02      0.9741876265E+03      0.9726051211E+04     -0.8479792697E-01

    ------------------------------------------------
       NWT REQUIRED            2 OUTER ITERATIONS 
       AND A TOTAL OF          5 INNER ITERATIONS.
    ------------------------------------------------

 NO OUTPUT CONTROL FOR STRESS PERIOD   47   TIME STEP    2

 WELLS WITH REDUCED PUMPING FOR STRESS PERIOD    47 TIME STEP     2
   LAY   ROW   COL         APPL.Q          ACT.Q        GW-HEAD       CELL-BOT
     1    77   213  -0.234339E+04  -0.122462E+04   0.154164E+03   0.148000E+03
     1    92    77  -0.234339E+04  -0.460704E+03  -0.861459E+02  -0.930000E+02
     1    94    77  -0.234339E+04  -0.642221E+03  -0.942115E+02  -0.102000E+03
     1    94    73  -0.234339E+04  -0.684022E+03  -0.667870E+02  -0.740000E+02


 SOLVING FOR HEAD 
                                                   Max.-Head-Change                        Max.-Flux-Residual
  Residual-Control   Outer-Iter.   Inner-Iter.     Column Row Layer    Max.-Head-Change    Column Row Layer    Max.-Flux-Residual            L2-New               L2-Old           Solver-Max-Delh
          0                 1           3           213   83     1      -0.3622196024E+00     213   83    1      -0.8830795686E+03      0.9395416503E+04      0.4871374993E+02     -0.3622196024E+00
          0                 2           2           458  452     1       0.4004531965E-01     213   83    1       0.8828392086E+02      0.9412536412E+03      0.9395416503E+04      0.4004531965E-01

    ------------------------------------------------
       NWT REQUIRED            2 OUTER ITERATIONS 
       AND A TOTAL OF          5 INNER ITERATIONS.
    ------------------------------------------------

 NO OUTPUT CONTROL FOR STRESS PERIOD   47   TIME STEP    3

 WELLS WITH REDUCED PUMPING FOR STRESS PERIOD    47 TIME STEP     3
   LAY   ROW   COL         APPL.Q          ACT.Q        GW-HEAD       CELL-BOT
     1    77   213  -0.234339E+04  -0.119244E+04   0.154054E+03   0.148000E+03
     1    92    77  -0.234339E+04  -0.459788E+03  -0.861536E+02  -0.930000E+02
     1    94    77  -0.234339E+04  -0.629930E+03  -0.942993E+02  -0.102000E+03
     1    94    73  -0.234339E+04  -0.671879E+03  -0.668631E+02  -0.740000E+02


 SOLVING FOR HEAD 
                                                   Max.-Head-Change                        Max.-Flux-Residual
  Residual-Control   Outer-Iter.   Inner-Iter.     Column Row Layer    Max.-Head-Change    Column Row Layer    Max.-Flux-Residual            L2-New               L2-Old           Solver-Max-Delh
          0                 1           3           213   83     1      -0.3565842413E+00     213   83    1      -0.8692362260E+03      0.9169647672E+04      0.4706545506E+02     -0.3565842413E+00
          0                 2           2           458  452     1       0.3969112493E-01     213   83    1       0.8690012481E+02      0.9172503004E+03      0.9169647672E+04      0.3969112493E-01

    ------------------------------------------------
       NWT REQUIRED            2 OUTER ITERATIONS 
       AND A TOTAL OF          5 INNER ITERATIONS.
    ------------------------------------------------

 NO OUTPUT CONTROL FOR STRESS PERIOD   47   TIME STEP    4

 WELLS WITH REDUCED PUMPING FOR STRESS PERIOD    47 TIME STEP     4
   LAY   ROW   COL         APPL.Q          ACT.Q        GW-HEAD       CELL-BOT
     1    77   213  -0.234339E+04  -0.116354E+04   0.153956E+03   0.148000E+03
     1    92    77  -0.234339E+04  -0.459316E+03  -0.861576E+02  -0.930000E+02
     1    94    77  -0.234339E+04  -0.618325E+03  -0.943827E+02  -0.102000E+03
     1    94    73  -0.234339E+04  -0.660489E+03  -0.669348E+02  -0.740000E+02


 SOLVING FOR HEAD 
                                                   Max.-Head-Change                        Max.-Flux-Residual
  Residual-Control   Outer-Iter.   Inner-Iter.     Column Row Layer    Max.-Head-Change    Column Row Layer    Max.-Flux-Residual            L2-New               L2-Old           Solver-Max-Delh
          0                 1           3           213   83     1      -0.3510731698E+00     213   83    1      -0.8556991238E+03      0.8982990340E+04      0.4586467454E+02     -0.3510731698E+00
          0                 2           2           458  452     1       0.3933148309E-01     213   83    1       0.8554693993E+02      0.8985464298E+03      0.8982990340E+04      0.3933148309E-01

    ------------------------------------------------
       NWT REQUIRED            2 OUTER ITERATIONS 
       AND A TOTAL OF          5 INNER ITERATIONS.
    ------------------------------------------------

 NO OUTPUT CONTROL FOR STRESS PERIOD   47   TIME STEP    5

 WELLS WITH REDUCED PUMPING FOR STRESS PERIOD    47 TIME STEP     5
   LAY   ROW   COL         APPL.Q          ACT.Q        GW-HEAD       CELL-BOT
     1    77   213  -0.234339E+04  -0.113761E+04   0.153868E+03   0.148000E+03
     1    92    77  -0.234339E+04  -0.459074E+03  -0.861596E+02  -0.930000E+02
     1    94    77  -0.234339E+04  -0.607362E+03  -0.944618E+02  -0.102000E+03
     1    94    73  -0.234339E+04  -0.649801E+03  -0.670023E+02  -0.740000E+02


 SOLVING FOR HEAD 
                                                   Max.-Head-Change                        Max.-Flux-Residual
  Residual-Control   Outer-Iter.   Inner-Iter.     Column Row Layer    Max.-Head-Change    Column Row Layer    Max.-Flux-Residual            L2-New               L2-Old           Solver-Max-Delh
          0                 1           3           213   83     1      -0.3456832983E+00     213   83    1      -0.8424609903E+03      0.8817176431E+04      0.4492919743E+02     -0.3456832983E+00
          0                 2           2           458  452     1       0.3896648886E-01     213   83    1       0.8422364004E+02      0.8819453325E+03      0.8817176431E+04      0.3896648886E-01

    ------------------------------------------------
       NWT REQUIRED            2 OUTER ITERATIONS 
       AND A TOTAL OF          5 INNER ITERATIONS.
    ------------------------------------------------

 NO OUTPUT CONTROL FOR STRESS PERIOD   47   TIME STEP    6

 WELLS WITH REDUCED PUMPING FOR STRESS PERIOD    47 TIME STEP     6
   LAY   ROW   COL         APPL.Q          ACT.Q        GW-HEAD       CELL-BOT
     1    77   213  -0.234339E+04  -0.111432E+04   0.153788E+03   0.148000E+03
     1    92    77  -0.234339E+04  -0.458951E+03  -0.861607E+02  -0.930000E+02
     1    94    77  -0.234339E+04  -0.597003E+03  -0.945370E+02  -0.102000E+03
     1    94    73  -0.234339E+04  -0.639767E+03  -0.670661E+02  -0.740000E+02


 SOLVING FOR HEAD 
                                                   Max.-Head-Change                        Max.-Flux-Residual
  Residual-Control   Outer-Iter.   Inner-Iter.     Column Row Layer    Max.-Head-Change    Column Row Layer    Max.-Flux-Residual            L2-New               L2-Old           Solver-Max-Delh
          0                 1           3           213   83     1      -0.3404115889E+00     213   83    1      -0.8295143952E+03      0.8665065113E+04      0.4409894993E+02     -0.3404115889E+00
          0                 2           2           458  452     1       0.3859624313E-01     213   83    1       0.8292948248E+02      0.8670065477E+03      0.8665065113E+04      0.3859624313E-01

    ------------------------------------------------
       NWT REQUIRED            2 OUTER ITERATIONS 
       AND A TOTAL OF          5 INNER ITERATIONS.
    ------------------------------------------------

 NO OUTPUT CONTROL FOR STRESS PERIOD   47   TIME STEP    7

 WELLS WITH REDUCED PUMPING FOR STRESS PERIOD    47 TIME STEP     7
   LAY   ROW   COL         APPL.Q          ACT.Q        GW-HEAD       CELL-BOT
     1    77   213  -0.234339E+04  -0.109341E+04   0.153717E+03   0.148000E+03
     1    92    77  -0.234339E+04  -0.458887E+03  -0.861612E+02  -0.930000E+02
     1    94    77  -0.234339E+04  -0.587209E+03  -0.946085E+02  -0.102000E+03
     1    94    73  -0.234339E+04  -0.630344E+03  -0.671262E+02  -0.740000E+02


 SOLVING FOR HEAD 
                                                   Max.-Head-Change                        Max.-Flux-Residual
  Residual-Control   Outer-Iter.   Inner-Iter.     Column Row Layer    Max.-Head-Change    Column Row Layer    Max.-Flux-Residual            L2-New               L2-Old           Solver-Max-Delh
          0                 1           3           213   83     1      -0.3352550078E+00     213   83    1      -0.8168518020E+03      0.8522860562E+04      0.4335187074E+02     -0.3352550078E+00
          0                 2           2           458  452     1       0.3822085385E-01     213   83    1       0.8166371369E+02      0.8526624271E+03      0.8522860562E+04      0.3822085385E-01

    ------------------------------------------------
       NWT REQUIRED            2 OUTER ITERATIONS 
       AND A TOTAL OF          5 INNER ITERATIONS.
    ------------------------------------------------

 NO OUTPUT CONTROL FOR STRESS PERIOD   47   TIME STEP    8

 WELLS WITH REDUCED PUMPING FOR STRESS PERIOD    47 TIME STEP     8
   LAY   ROW   COL         APPL.Q          ACT.Q        GW-HEAD       CELL-BOT
     1    77   213  -0.234339E+04  -0.107463E+04   0.153653E+03   0.148000E+03
     1    92    77  -0.234339E+04  -0.458854E+03  -0.861615E+02  -0.930000E+02
     1    94    77  -0.234339E+04  -0.577947E+03  -0.946763E+02  -0.102000E+03
     1    94    73  -0.234339E+04  -0.621489E+03  -0.671829E+02  -0.740000E+02


 SOLVING FOR HEAD 
                                                   Max.-Head-Change                        Max.-Flux-Residual
  Residual-Control   Outer-Iter.   Inner-Iter.     Column Row Layer    Max.-Head-Change    Column Row Layer    Max.-Flux-Residual            L2-New               L2-Old           Solver-Max-Delh
          0                 1           3           213   83     1      -0.3302106884E+00     213   83    1      -0.8044660498E+03      0.8388022245E+04      0.4263456118E+02     -0.3302106884E+00
          0                 2           2           458  452     1       0.3784043373E-01     457  432    1      -0.1017543313E+03      0.8486004068E+03      0.8388022245E+04      0.3784043373E-01

    ------------------------------------------------
       NWT REQUIRED            2 OUTER ITERATIONS 
       AND A TOTAL OF          5 INNER ITERATIONS.
    ------------------------------------------------

 NO OUTPUT CONTROL FOR STRESS PERIOD   47   TIME STEP    9

 WELLS WITH REDUCED PUMPING FOR STRESS PERIOD    47 TIME STEP     9
   LAY   ROW   COL         APPL.Q          ACT.Q        GW-HEAD       CELL-BOT
     1    77   213  -0.234339E+04  -0.105775E+04   0.153595E+03   0.148000E+03
     1    92    77  -0.234339E+04  -0.458837E+03  -0.861617E+02  -0.930000E+02
     1    94    77  -0.234339E+04  -0.569183E+03  -0.947409E+02  -0.102000E+03
     1    94    73  -0.234339E+04  -0.613166E+03  -0.672364E+02  -0.740000E+02


 SOLVING FOR HEAD 
                                                   Max.-Head-Change                        Max.-Flux-Residual
  Residual-Control   Outer-Iter.   Inner-Iter.     Column Row Layer    Max.-Head-Change    Column Row Layer    Max.-Flux-Residual            L2-New               L2-Old           Solver-Max-Delh
          0                 1           3           213   83     1      -0.3252758800E+00     213   83    1      -0.7923502568E+03      0.8258158755E+04      0.4243168048E+02     -0.3252758800E+00
          0                 2           2           458  452     1       0.3745510166E-01     458  433    1       0.1484494002E+03      0.8453376184E+03      0.8258158755E+04      0.3745510166E-01

    ------------------------------------------------
       NWT REQUIRED            2 OUTER ITERATIONS 
       AND A TOTAL OF          5 INNER ITERATIONS.
    ------------------------------------------------

 OUTPUT CONTROL FOR STRESS PERIOD   47   TIME STEP   10
    SAVE HEAD FOR ALL LAYERS

 WELLS WITH REDUCED PUMPING FOR STRESS PERIOD    47 TIME STEP    10
   LAY   ROW   COL         APPL.Q          ACT.Q        GW-HEAD       CELL-BOT
     1    77   213  -0.234339E+04  -0.104257E+04   0.153543E+03   0.148000E+03
     1    92    77  -0.234339E+04  -0.458826E+03  -0.861617E+02  -0.930000E+02
     1    94    77  -0.234339E+04  -0.560888E+03  -0.948022E+02  -0.102000E+03
     1    94    73  -0.234339E+04  -0.605339E+03  -0.672869E+02  -0.740000E+02


 HEAD WILL BE SAVED ON UNIT   51 AT END OF TIME STEP   10, STRESS PERIOD   47
1
  VOLUMETRIC BUDGET FOR ENTIRE MODEL AT END OF TIME STEP   10, STRESS PERIOD  47
  ------------------------------------------------------------------------------

     CUMULATIVE VOLUMES      L**3       RATES FOR THIS TIME STEP      L**3/T
     ------------------                 ------------------------

           IN:                                      IN:
           ---                                      ---
             STORAGE =   493755104.0000               STORAGE =      217200.0938
       CONSTANT HEAD =    72056856.0000         CONSTANT HEAD =       51990.7969
               WELLS =           0.0000                 WELLS =           0.0000
              DRAINS =           0.0000                DRAINS =           0.0000
                  ET =           0.0000                    ET =           0.0000
            RECHARGE =   277447168.0000              RECHARGE =      394290.6875

            TOTAL IN =   843259136.0000              TOTAL IN =      663481.5625

          OUT:                                     OUT:
          ----                                     ----
             STORAGE =   173404160.0000               STORAGE =      127430.7344
       CONSTANT HEAD =           0.0000         CONSTANT HEAD =           0.0000
               WELLS =   441753984.0000                 WELLS =      370171.8125
              DRAINS =   159702752.0000                DRAINS =      117745.3438
                  ET =    67366824.0000                    ET =       47675.7812
            RECHARGE =       81860.0000              RECHARGE =           0.0000

           TOTAL OUT =   842309632.0000             TOTAL OUT =      663023.6250

            IN - OUT =      949504.0000              IN - OUT =         457.9375

 PERCENT DISCREPANCY =           0.11     PERCENT DISCREPANCY =           0.07






         TIME SUMMARY AT END OF TIME STEP   10 IN STRESS PERIOD   47
                    SECONDS     MINUTES      HOURS       DAYS        YEARS
                    -----------------------------------------------------------
   TIME STEP LENGTH 2.62656E+05  4377.6      72.960      3.0400     8.32307E-03
 STRESS PERIOD TIME 2.62656E+06  43776.      729.60      30.400     8.32307E-02
         TOTAL TIME 1.23448E+08 2.05747E+06  34291.      1428.8      3.9118    
1
1
                            STRESS PERIOD NO.   48, LENGTH =   30.40000    
                            -----------------------------------------------

                              NUMBER OF TIME STEPS =    10

                               MULTIPLIER FOR DELT =     1.000

                            INITIAL TIME STEP SIZE =   3.040000    

 WELL NO.  LAYER   ROW   COL   STRESS RATE         
 --------------------------------------------------
      1      1     69    225      -4061.    
      2      1     71    224       0.000    
      3      1     74    220       0.000    
      4      1     73    220       0.000    
      5      1     71    223       0.000    
      6      1     71    223       0.000    
      7      1     72    223       0.000    
      8      1     92    173       0.000    
      9      1     94    174       0.000    
     10      1     93    175       0.000    
     11      1    203    328       0.000    
     12      1    438    460      -0.000    
     13      1    436    461      -0.000    
     14      1    410    454      -0.000    
     15      1    433    460      -0.000    
     16      1    431    462      -0.000    
     17      1    417    459      -0.000    
     18      1    418    458      -0.000    
     19      1    414    455      -0.000    
     20      1    443    464      -0.000    
     21      1    379    425      -0.000    
     22      1    362    405      -0.000    
     23      1    361    405      -0.000    
     24      1    362    406      -0.000    
     25      1    363    408      -0.000    
     26      1    364    410      -0.000    
     27      1    369    418      -0.000    
     28      1    367    417      -0.000    
     29      1    365    415      -0.000    
     30      1    402    447      -0.000    
     31      1    400    446      -0.000    
     32      1    392    444      -0.000    
     33      1    391    441      -0.000    
     34      1    403    448      -0.000    
     35      1    405    447      -0.000    
     36      1    362    410      -0.000    
     37      1    362    411      -0.000    
     38      1    363    412      -0.000    
     39      1    375    421      -0.000    
     40      1    383    430      -0.000    
     41      1    397    445      -0.000    
     42      1    360    403      -0.000    
     43      1    350    401      -0.000    
     44      1    346    393      -49.88    
     45      1    333    387      -49.88    
     46      1    328    384      -49.88    
     47      1    326    383      -49.88    
     48      1    323    378      -49.88    
     49      1    321    378      -49.88    
     50      1    322    376      -49.88    
     51      1    316    374      -49.88    
     52      1    311    371      -49.88    
     53      1    307    369      -49.88    
     54      1    305    368      -49.88    
     55      1    303    368      -49.88    
     56      1    300    369      -49.88    
     57      1    293    364      -49.88    
     58      1    292    362      -49.88    
     59      1    278    350      -49.88    
     60      1    274    351      -49.88    
     61      1    273    350      -49.88    
     62      1    271    350      -49.88    
     63      1    267    348      -49.88    
     64      1    263    348      -49.88    
     65      1    263    348      -49.88    
     66      1    248    347      -49.88    
     67      1    243    342      -49.88    
     68      1    242    339      -49.88    
     69      1    238    341      -49.88    
     70      1    233    340      -49.88    
     71      1    232    340      -49.88    
     72      1    229    341      -49.88    
     73      1    227    341      -49.88    
     74      1    219    342      -49.88    
     75      1    219    336      -49.88    
     76      1    199    329      -49.88    
     77      1    191    332      -0.000    
     78      1    190    332      -0.000    
     79      1    130    310      -0.000    
     80      1    123    305      -0.000    
     81      1    104    289      -0.000    
     82      1     96    287      -510.6    
     83      1     95    284      -510.6    
     84      1     95    280      -510.6    
     85      1     93    276      -510.6    
     86      1     94    275      -510.6    
     87      1     90    277      -510.6    
     88      1     90    273      -510.6    
     89      1     86    271      -510.6    
     90      1     85    270      -510.6    
     91      1     84    265      -510.6    
     92      1     85    265      -510.6    
     93      1     84    264      -510.6    
     94      1     79    263      -510.6    
     95      1     79    263      -510.6    
     96      1     76    262      -510.6    
     97      1     73    257      -510.6    
     98      1     74    255      -510.6    
     99      1     71    255      -510.6    
    100      1     66    253      -510.6    
    101      1     68    252      -510.6    
    102      1     69    250      -510.6    
    103      1     65    248      -510.6    
    104      1     68    248      -510.6    
    105      1     69    247      -510.6    
    106      1     73    247      -510.6    
    107      1     64    246      -510.6    
    108      1     69    245      -510.6    
    109      1     72    245      -510.6    
    110      1     69    241      -510.6    
    111      1     73    238      -510.6    
    112      1     70    238      -510.6    
    113      1     76    263      -510.6    
    114      1     66    232      -620.9    
    115      1     69    229      -620.9    
    116      1     71    228      -620.9    
    117      1     69    227      -620.9    
    118      1     72    219      -620.9    
    119      1     72    218      -620.9    
    120      1     72    218      -620.9    
    121      1     73    217      -620.9    
    122      1     77    219      -620.9    
    123      1     78    219      -620.9    
    124      1     83    213      -620.9    
    125      1     77    213      -620.9    
    126      1     81    211      -620.9    
    127      1     81    210      -620.9    
    128      1     81    210      -620.9    
    129      1     82    208      -620.9    
    130      1     80    205      -620.9    
    131      1     86    202      -620.9    
    132      1     84    200      -620.9    
    133      1     89    200      -620.9    
    134      1     89    199      -620.9    
    135      1     88    199      -620.9    
    136      1     86    199      -620.9    
    137      1     85    199      -620.9    
    138      1     82    197      -620.9    
    139      1     86    197      -620.9    
    140      1     88    198      -620.9    
    141      1     90    192      -620.9    
    142      1     89    191      -620.9    
    143      1     84    192      -620.9    
    144      1     91    189      -620.9    
    145      1     92    185      -620.9    
    146      1     87    183      -620.9    
    147      1     92    182      -620.9    
    148      1     90    182      -620.9    
    149      1     88    179      -620.9    
    150      1     89    176      -620.9    
    151      1     92    172      -620.9    
    152      1     93    164      -620.9    
    153      1     94    162      -620.9    
    154      1    103    156      -620.9    
    155      1    103    156      -620.9    
    156      1     96    154      -620.9    
    157      1     97    153      -620.9    
    158      1    122    139      -620.9    
    159      1     92     77      -620.9    
    160      1     94     77      -620.9    
    161      1     94     73      -620.9    
    162      1     97    152      -620.9    
    163      1    118    337      -666.7    
    164      1    133    319      -2678.    
    165      1    131    320      -3951.    
    166      1    133    321      -2956.    
    167      1    161    329      -2141.    
    168      1    178    330      -551.0    
    169      1    163    330      -1122.    
    170      1    131    320      -2473.    
    171      1    129    315      -3937.    
    172      1    162    329      -1959.    
    173      1    131    311      -826.1    
    174      1    221    340      -1994.    
    175      1    220    340      -1034.    
    176      1    221    340      -667.7    
    177      1    137    322      -2082.    
    178      1    137    321      -1407.    
    179      1    185    329      -2012.    
    180      1    183    329      -1473.    
    181      1    175    329      -585.3    
    182      1     79    243      -1490.    
    183      1     77    245      -2414.    
    184      1    199    329      -1617.    
    185      1    198    330      -2514.    
    186      1    140    328      -972.1    
    187      1    143    327      -863.6    
    188      1    139    327      -1331.    

    188 WELLS

 REUSING NON-PARAMETER DRAINS FROM LAST STRESS PERIOD

   1061 DRAINS

 REUSING SURF FROM LAST STRESS PERIOD

 REUSING EVTR FROM LAST STRESS PERIOD

 REUSING EXDP FROM LAST STRESS PERIOD



                           RECHARGE
 READING ON UNIT   19 WITH FORMAT: (510E15.6)          

 SOLVING FOR HEAD 
                                                   Max.-Head-Change                        Max.-Flux-Residual
  Residual-Control   Outer-Iter.   Inner-Iter.     Column Row Layer    Max.-Head-Change    Column Row Layer    Max.-Flux-Residual            L2-New               L2-Old           Solver-Max-Delh
          0                 1           3           263   79     1       0.1978785528E+02     263   79    1       0.6514866552E+04      0.2676543207E+05      0.4226837121E+02      0.1978785528E+02
          0                 2           2           263   79     1      -0.1903513739E+01     263   79    1      -0.7514517896E+03      0.2807123696E+04      0.2676543207E+05     -0.1903513739E+01
          0                 3           2           263   79     1      -0.9741388995E-01     263   79    1      -0.3841112088E+02      0.1445184199E+03      0.2807123696E+04     -0.9741388995E-01

    ------------------------------------------------
       NWT REQUIRED            3 OUTER ITERATIONS 
       AND A TOTAL OF          7 INNER ITERATIONS.
    ------------------------------------------------

 NO OUTPUT CONTROL FOR STRESS PERIOD   48   TIME STEP    1

 WELLS WITH REDUCED PUMPING FOR STRESS PERIOD    48 TIME STEP     1
   LAY   ROW   COL         APPL.Q          ACT.Q        GW-HEAD       CELL-BOT
     1    77   213  -0.620891E+03  -0.293482E+03   0.153766E+03   0.148000E+03
     1    92    77  -0.620891E+03  -0.183810E+03  -0.843131E+02  -0.930000E+02
     1    94    77  -0.620891E+03  -0.151666E+03  -0.947170E+02  -0.102000E+03
     1    94    73  -0.620891E+03  -0.164826E+03  -0.671790E+02  -0.740000E+02


 SOLVING FOR HEAD 
                                                   Max.-Head-Change                        Max.-Flux-Residual
  Residual-Control   Outer-Iter.   Inner-Iter.     Column Row Layer    Max.-Head-Change    Column Row Layer    Max.-Flux-Residual            L2-New               L2-Old           Solver-Max-Delh
          0                 1           3           263   79     1       0.8096796119E+01     156  103    1       0.2581248211E+04      0.1267292759E+05      0.1445184199E+03      0.8096796119E+01
          0                 2           2           263   79     1      -0.7478393679E+00     263   79    1      -0.2800175097E+03      0.1280607706E+04      0.1267292759E+05     -0.7478393679E+00
          0                 3           2           263   79     1      -0.3793382729E-01     263   79    1      -0.1420457261E+02      0.6411591057E+02      0.1280607706E+04     -0.3793382729E-01

    ------------------------------------------------
       NWT REQUIRED            3 OUTER ITERATIONS 
       AND A TOTAL OF          7 INNER ITERATIONS.
    ------------------------------------------------

 NO OUTPUT CONTROL FOR STRESS PERIOD   48   TIME STEP    2

 WELLS WITH REDUCED PUMPING FOR STRESS PERIOD    48 TIME STEP     2
   LAY   ROW   COL         APPL.Q          ACT.Q        GW-HEAD       CELL-BOT
     1    77   213  -0.620891E+03  -0.310159E+03   0.153980E+03   0.148000E+03
     1    92    77  -0.620891E+03  -0.235908E+03  -0.828943E+02  -0.930000E+02
     1    94    77  -0.620891E+03  -0.154696E+03  -0.946330E+02  -0.102000E+03
     1    94    73  -0.620891E+03  -0.169223E+03  -0.670729E+02  -0.740000E+02


 SOLVING FOR HEAD 
                                                   Max.-Head-Change                        Max.-Flux-Residual
  Residual-Control   Outer-Iter.   Inner-Iter.     Column Row Layer    Max.-Head-Change    Column Row Layer    Max.-Flux-Residual            L2-New               L2-Old           Solver-Max-Delh
          0                 1           3           263   79     1       0.3585244860E+01     156  103    1       0.2095903248E+04      0.1029846093E+05      0.6411591057E+02      0.3585244860E+01
          0                 2           2           263   79     1      -0.3304783852E+00     156  103    1      -0.2097297353E+03      0.1034077808E+04      0.1029846093E+05     -0.3304783852E+00
          0                 3           2           458  452     1       0.3509485792E-01     156  103    1      -0.1048752175E+02      0.5169195817E+02      0.1034077808E+04      0.3509485792E-01

    ------------------------------------------------
       NWT REQUIRED            3 OUTER ITERATIONS 
       AND A TOTAL OF          7 INNER ITERATIONS.
    ------------------------------------------------

 NO OUTPUT CONTROL FOR STRESS PERIOD   48   TIME STEP    3

 WELLS WITH REDUCED PUMPING FOR STRESS PERIOD    48 TIME STEP     3
   LAY   ROW   COL         APPL.Q          ACT.Q        GW-HEAD       CELL-BOT
     1    77   213  -0.620891E+03  -0.326243E+03   0.154187E+03   0.148000E+03
     1    92    77  -0.620891E+03  -0.277070E+03  -0.818136E+02  -0.930000E+02
     1    94    77  -0.620891E+03  -0.157697E+03  -0.945502E+02  -0.102000E+03
     1    94    73  -0.620891E+03  -0.173576E+03  -0.669687E+02  -0.740000E+02


 SOLVING FOR HEAD 
                                                   Max.-Head-Change                        Max.-Flux-Residual
  Residual-Control   Outer-Iter.   Inner-Iter.     Column Row Layer    Max.-Head-Change    Column Row Layer    Max.-Flux-Residual            L2-New               L2-Old           Solver-Max-Delh
          0                 1           3           263   79     1       0.1748326345E+01     156  103    1       0.1716612485E+04      0.9156617071E+04      0.5169195817E+02      0.1748326345E+01
          0                 2           2           263   79     1      -0.1503586925E+00     156  103    1      -0.1717795196E+03      0.9167329518E+03      0.9156617071E+04     -0.1503586925E+00
          0                 3           2           458  452     1       0.3431208946E-01     156  103    1      -0.8589854210E+01      0.4584303777E+02      0.9167329518E+03      0.3431208946E-01

    ------------------------------------------------
       NWT REQUIRED            3 OUTER ITERATIONS 
       AND A TOTAL OF          7 INNER ITERATIONS.
    ------------------------------------------------

 NO OUTPUT CONTROL FOR STRESS PERIOD   48   TIME STEP    4

 WELLS WITH REDUCED PUMPING FOR STRESS PERIOD    48 TIME STEP     4
   LAY   ROW   COL         APPL.Q          ACT.Q        GW-HEAD       CELL-BOT
     1    77   213  -0.620891E+03  -0.341717E+03   0.154386E+03   0.148000E+03
     1    92    77  -0.620891E+03  -0.308733E+03  -0.809926E+02  -0.930000E+02
     1    94    77  -0.620891E+03  -0.160670E+03  -0.944687E+02  -0.102000E+03
     1    94    73  -0.620891E+03  -0.177882E+03  -0.668663E+02  -0.740000E+02


 SOLVING FOR HEAD 
                                                   Max.-Head-Change                        Max.-Flux-Residual
  Residual-Control   Outer-Iter.   Inner-Iter.     Column Row Layer    Max.-Head-Change    Column Row Layer    Max.-Flux-Residual            L2-New               L2-Old           Solver-Max-Delh
          0                 1           3           264   78     1       0.1122138536E+01     156  103    1       0.1418084358E+04      0.8443096977E+04      0.4584303777E+02      0.1122138536E+01
          0                 2           2           264   78     1      -0.9855374065E-01     156  103    1      -0.1419046436E+03      0.8498170160E+03      0.8443096977E+04     -0.9855374065E-01

    ------------------------------------------------
       NWT REQUIRED            2 OUTER ITERATIONS 
       AND A TOTAL OF          5 INNER ITERATIONS.
    ------------------------------------------------

 NO OUTPUT CONTROL FOR STRESS PERIOD   48   TIME STEP    5

 WELLS WITH REDUCED PUMPING FOR STRESS PERIOD    48 TIME STEP     5
   LAY   ROW   COL         APPL.Q          ACT.Q        GW-HEAD       CELL-BOT
     1    77   213  -0.620891E+03  -0.356647E+03   0.154579E+03   0.148000E+03
     1    92    77  -0.620891E+03  -0.332914E+03  -0.803663E+02  -0.930000E+02
     1    94    77  -0.620891E+03  -0.163628E+03  -0.943881E+02  -0.102000E+03
     1    94    73  -0.620891E+03  -0.182161E+03  -0.667652E+02  -0.740000E+02


 SOLVING FOR HEAD 
                                                   Max.-Head-Change                        Max.-Flux-Residual
  Residual-Control   Outer-Iter.   Inner-Iter.     Column Row Layer    Max.-Head-Change    Column Row Layer    Max.-Flux-Residual            L2-New               L2-Old           Solver-Max-Delh
          0                 1           3           264   78     1       0.9371070258E+00     383  326    1       0.1200109820E+04      0.7936452753E+04      0.4249467163E+02      0.9371070258E+00
          0                 2           2           264   78     1      -0.8218162897E-01     383  326    1      -0.1200845316E+03      0.7941701377E+03      0.7936452753E+04     -0.8218162897E-01

    ------------------------------------------------
       NWT REQUIRED            2 OUTER ITERATIONS 
       AND A TOTAL OF          5 INNER ITERATIONS.
    ------------------------------------------------

 NO OUTPUT CONTROL FOR STRESS PERIOD   48   TIME STEP    6

 WELLS WITH REDUCED PUMPING FOR STRESS PERIOD    48 TIME STEP     6
   LAY   ROW   COL         APPL.Q          ACT.Q        GW-HEAD       CELL-BOT
     1    77   213  -0.620891E+03  -0.370953E+03   0.154766E+03   0.148000E+03
     1    92    77  -0.620891E+03  -0.351178E+03  -0.798914E+02  -0.930000E+02
     1    94    77  -0.620891E+03  -0.166555E+03  -0.943087E+02  -0.102000E+03
     1    94    73  -0.620891E+03  -0.186389E+03  -0.666658E+02  -0.740000E+02


 SOLVING FOR HEAD 
                                                   Max.-Head-Change                        Max.-Flux-Residual
  Residual-Control   Outer-Iter.   Inner-Iter.     Column Row Layer    Max.-Head-Change    Column Row Layer    Max.-Flux-Residual            L2-New               L2-Old           Solver-Max-Delh
          0                 1           3           264   78     1       0.7700236229E+00     383  326    1       0.1094696331E+04      0.7553349971E+04      0.3970939112E+02      0.7700236229E+00
          0                 2           2           264   78     1      -0.6738914744E-01     461  429    1       0.1851876194E+03      0.7989979086E+03      0.7553349971E+04     -0.6738914744E-01

    ------------------------------------------------
       NWT REQUIRED            2 OUTER ITERATIONS 
       AND A TOTAL OF          5 INNER ITERATIONS.
    ------------------------------------------------

 NO OUTPUT CONTROL FOR STRESS PERIOD   48   TIME STEP    7

 WELLS WITH REDUCED PUMPING FOR STRESS PERIOD    48 TIME STEP     7
   LAY   ROW   COL         APPL.Q          ACT.Q        GW-HEAD       CELL-BOT
     1    77   213  -0.620891E+03  -0.384641E+03   0.154945E+03   0.148000E+03
     1    92    77  -0.620891E+03  -0.364956E+03  -0.795310E+02  -0.930000E+02
     1    94    77  -0.620891E+03  -0.169452E+03  -0.942305E+02  -0.102000E+03
     1    94    73  -0.620891E+03  -0.190567E+03  -0.665683E+02  -0.740000E+02


 SOLVING FOR HEAD 
                                                   Max.-Head-Change                        Max.-Flux-Residual
  Residual-Control   Outer-Iter.   Inner-Iter.     Column Row Layer    Max.-Head-Change    Column Row Layer    Max.-Flux-Residual            L2-New               L2-Old           Solver-Max-Delh
          0                 1           3           264   78     1       0.6322385235E+00     383  326    1       0.1002488068E+04      0.7247534083E+04      0.3995227785E+02      0.6322385235E+00
          0                 2           2           264   78     1      -0.5520158223E-01     383  326    1      -0.1003565383E+03      0.7261768107E+03      0.7247534083E+04     -0.5520158223E-01

    ------------------------------------------------
       NWT REQUIRED            2 OUTER ITERATIONS 
       AND A TOTAL OF          5 INNER ITERATIONS.
    ------------------------------------------------

 NO OUTPUT CONTROL FOR STRESS PERIOD   48   TIME STEP    8

 WELLS WITH REDUCED PUMPING FOR STRESS PERIOD    48 TIME STEP     8
   LAY   ROW   COL         APPL.Q          ACT.Q        GW-HEAD       CELL-BOT
     1    77   213  -0.620891E+03  -0.397720E+03   0.155119E+03   0.148000E+03
     1    92    77  -0.620891E+03  -0.375348E+03  -0.792575E+02  -0.930000E+02
     1    94    77  -0.620891E+03  -0.172317E+03  -0.941535E+02  -0.102000E+03
     1    94    73  -0.620891E+03  -0.194693E+03  -0.664725E+02  -0.740000E+02


 SOLVING FOR HEAD 
                                                   Max.-Head-Change                        Max.-Flux-Residual
  Residual-Control   Outer-Iter.   Inner-Iter.     Column Row Layer    Max.-Head-Change    Column Row Layer    Max.-Flux-Residual            L2-New               L2-Old           Solver-Max-Delh
          0                 1           3           264   78     1       0.5228462547E+00     378  321    1       0.9220727846E+03      0.6994170446E+04      0.3631017693E+02      0.5228462547E+00
          0                 2           2           264   78     1      -0.4555368897E-01     378  321    1      -0.9226425353E+02      0.7045476471E+03      0.6994170446E+04     -0.4555368897E-01

    ------------------------------------------------
       NWT REQUIRED            2 OUTER ITERATIONS 
       AND A TOTAL OF          5 INNER ITERATIONS.
    ------------------------------------------------

 NO OUTPUT CONTROL FOR STRESS PERIOD   48   TIME STEP    9

 WELLS WITH REDUCED PUMPING FOR STRESS PERIOD    48 TIME STEP     9
   LAY   ROW   COL         APPL.Q          ACT.Q        GW-HEAD       CELL-BOT
     1    77   213  -0.620891E+03  -0.410201E+03   0.155286E+03   0.148000E+03
     1    92    77  -0.620891E+03  -0.383187E+03  -0.790500E+02  -0.930000E+02
     1    94    77  -0.620891E+03  -0.175151E+03  -0.940778E+02  -0.102000E+03
     1    94    73  -0.620891E+03  -0.198765E+03  -0.663784E+02  -0.740000E+02


 SOLVING FOR HEAD 
                                                   Max.-Head-Change                        Max.-Flux-Residual
  Residual-Control   Outer-Iter.   Inner-Iter.     Column Row Layer    Max.-Head-Change    Column Row Layer    Max.-Flux-Residual            L2-New               L2-Old           Solver-Max-Delh
          0                 1           3           264   78     1       0.4371364694E+00     378  321    1       0.8509721072E+03      0.6772792197E+04      0.3522863626E+02      0.4371364694E+00
          0                 2           2           264   78     1      -0.3801862731E-01     378  321    1      -0.8842143151E+02      0.6799004647E+03      0.6772792197E+04     -0.3801862731E-01

    ------------------------------------------------
       NWT REQUIRED            2 OUTER ITERATIONS 
       AND A TOTAL OF          5 INNER ITERATIONS.
    ------------------------------------------------

 OUTPUT CONTROL FOR STRESS PERIOD   48   TIME STEP   10
    SAVE HEAD FOR ALL LAYERS

 WELLS WITH REDUCED PUMPING FOR STRESS PERIOD    48 TIME STEP    10
   LAY   ROW   COL         APPL.Q          ACT.Q        GW-HEAD       CELL-BOT
     1    77   213  -0.620891E+03  -0.422100E+03   0.155448E+03   0.148000E+03
     1    92    77  -0.620891E+03  -0.389099E+03  -0.788928E+02  -0.930000E+02
     1    94    77  -0.620891E+03  -0.177953E+03  -0.940032E+02  -0.102000E+03
     1    94    73  -0.620891E+03  -0.202783E+03  -0.662860E+02  -0.740000E+02


 HEAD WILL BE SAVED ON UNIT   51 AT END OF TIME STEP   10, STRESS PERIOD   48
1
  VOLUMETRIC BUDGET FOR ENTIRE MODEL AT END OF TIME STEP   10, STRESS PERIOD  48
  ------------------------------------------------------------------------------

     CUMULATIVE VOLUMES      L**3       RATES FOR THIS TIME STEP      L**3/T
     ------------------                 ------------------------

           IN:                                      IN:
           ---                                      ---
             STORAGE =   497583072.0000               STORAGE =      103225.2266
       CONSTANT HEAD =    73637576.0000         CONSTANT HEAD =       52003.3555
               WELLS =           0.0000                 WELLS =           0.0000
              DRAINS =           0.0000                DRAINS =           0.0000
                  ET =           0.0000                    ET =           0.0000
            RECHARGE =   286593408.0000              RECHARGE =      300861.2500

            TOTAL IN =   857814080.0000              TOTAL IN =      456089.8125

          OUT:                                     OUT:
          ----                                     ----
             STORAGE =   179667408.0000               STORAGE =      174418.2656
       CONSTANT HEAD =           0.0000         CONSTANT HEAD =           0.0000
               WELLS =   444665536.0000                 WELLS =       95935.3438
              DRAINS =   163569712.0000                DRAINS =      134281.1250
                  ET =    68887184.0000                    ET =       51817.0586
            RECHARGE =       81860.0000              RECHARGE =           0.0000

           TOTAL OUT =   856871680.0000             TOTAL OUT =      456451.8125

            IN - OUT =      942400.0000              IN - OUT =        -362.0000

 PERCENT DISCREPANCY =           0.11     PERCENT DISCREPANCY =          -0.08






         TIME SUMMARY AT END OF TIME STEP   10 IN STRESS PERIOD   48
                    SECONDS     MINUTES      HOURS       DAYS        YEARS
                    -----------------------------------------------------------
   TIME STEP LENGTH 2.62656E+05  4377.6      72.960      3.0400     8.32307E-03
 STRESS PERIOD TIME 2.62656E+06  43776.      729.60      30.400     8.32307E-02
         TOTAL TIME 1.26075E+08 2.10125E+06  35021.      1459.2      3.9951    
1
1
                            STRESS PERIOD NO.   49, LENGTH =   30.40000    
                            -----------------------------------------------

                              NUMBER OF TIME STEPS =    10

                               MULTIPLIER FOR DELT =     1.000

                            INITIAL TIME STEP SIZE =   3.040000    

 WELL NO.  LAYER   ROW   COL   STRESS RATE         
 --------------------------------------------------
      1      1     69    225      -4147.    
      2      1     71    224       0.000    
      3      1     74    220       0.000    
      4      1     73    220       0.000    
      5      1     71    223       0.000    
      6      1     71    223       0.000    
      7      1     72    223       0.000    
      8      1     92    173       0.000    
      9      1     94    174       0.000    
     10      1     93    175       0.000    
     11      1    203    328       0.000    
     12      1    438    460      -550.5    
     13      1    436    461      -550.5    
     14      1    410    454      -550.5    
     15      1    433    460      -550.5    
     16      1    431    462      -550.5    
     17      1    417    459      -550.5    
     18      1    418    458      -550.5    
     19      1    414    455      -550.5    
     20      1    443    464      -550.5    
     21      1    379    425      -550.5    
     22      1    362    405      -550.5    
     23      1    361    405      -550.5    
     24      1    362    406      -550.5    
     25      1    363    408      -550.5    
     26      1    364    410      -550.5    
     27      1    369    418      -550.5    
     28      1    367    417      -550.5    
     29      1    365    415      -550.5    
     30      1    402    447      -550.5    
     31      1    400    446      -550.5    
     32      1    392    444      -550.5    
     33      1    391    441      -550.5    
     34      1    403    448      -550.5    
     35      1    405    447      -550.5    
     36      1    362    410      -550.5    
     37      1    362    411      -550.5    
     38      1    363    412      -550.5    
     39      1    375    421      -550.5    
     40      1    383    430      -550.5    
     41      1    397    445      -550.5    
     42      1    360    403      -550.5    
     43      1    350    401      -550.5    
     44      1    346    393      -581.6    
     45      1    333    387      -581.6    
     46      1    328    384      -581.6    
     47      1    326    383      -581.6    
     48      1    323    378      -581.6    
     49      1    321    378      -581.6    
     50      1    322    376      -581.6    
     51      1    316    374      -581.6    
     52      1    311    371      -581.6    
     53      1    307    369      -581.6    
     54      1    305    368      -581.6    
     55      1    303    368      -581.6    
     56      1    300    369      -581.6    
     57      1    293    364      -581.6    
     58      1    292    362      -581.6    
     59      1    278    350      -581.6    
     60      1    274    351      -581.6    
     61      1    273    350      -581.6    
     62      1    271    350      -581.6    
     63      1    267    348      -581.6    
     64      1    263    348      -581.6    
     65      1    263    348      -581.6    
     66      1    248    347      -581.6    
     67      1    243    342      -581.6    
     68      1    242    339      -581.6    
     69      1    238    341      -581.6    
     70      1    233    340      -581.6    
     71      1    232    340      -581.6    
     72      1    229    341      -581.6    
     73      1    227    341      -581.6    
     74      1    219    342      -581.6    
     75      1    219    336      -581.6    
     76      1    199    329      -581.6    
     77      1    191    332      -0.000    
     78      1    190    332      -0.000    
     79      1    130    310      -0.000    
     80      1    123    305      -0.000    
     81      1    104    289      -0.000    
     82      1     96    287      -1045.    
     83      1     95    284      -1045.    
     84      1     95    280      -1045.    
     85      1     93    276      -1045.    
     86      1     94    275      -1045.    
     87      1     90    277      -1045.    
     88      1     90    273      -1045.    
     89      1     86    271      -1045.    
     90      1     85    270      -1045.    
     91      1     84    265      -1045.    
     92      1     85    265      -1045.    
     93      1     84    264      -1045.    
     94      1     79    263      -1045.    
     95      1     79    263      -1045.    
     96      1     76    262      -1045.    
     97      1     73    257      -1045.    
     98      1     74    255      -1045.    
     99      1     71    255      -1045.    
    100      1     66    253      -1045.    
    101      1     68    252      -1045.    
    102      1     69    250      -1045.    
    103      1     65    248      -1045.    
    104      1     68    248      -1045.    
    105      1     69    247      -1045.    
    106      1     73    247      -1045.    
    107      1     64    246      -1045.    
    108      1     69    245      -1045.    
    109      1     72    245      -1045.    
    110      1     69    241      -1045.    
    111      1     73    238      -1045.    
    112      1     70    238      -1045.    
    113      1     76    263      -1045.    
    114      1     66    232      -728.1    
    115      1     69    229      -728.1    
    116      1     71    228      -728.1    
    117      1     69    227      -728.1    
    118      1     72    219      -728.1    
    119      1     72    218      -728.1    
    120      1     72    218      -728.1    
    121      1     73    217      -728.1    
    122      1     77    219      -728.1    
    123      1     78    219      -728.1    
    124      1     83    213      -728.1    
    125      1     77    213      -728.1    
    126      1     81    211      -728.1    
    127      1     81    210      -728.1    
    128      1     81    210      -728.1    
    129      1     82    208      -728.1    
    130      1     80    205      -728.1    
    131      1     86    202      -728.1    
    132      1     84    200      -728.1    
    133      1     89    200      -728.1    
    134      1     89    199      -728.1    
    135      1     88    199      -728.1    
    136      1     86    199      -728.1    
    137      1     85    199      -728.1    
    138      1     82    197      -728.1    
    139      1     86    197      -728.1    
    140      1     88    198      -728.1    
    141      1     90    192      -728.1    
    142      1     89    191      -728.1    
    143      1     84    192      -728.1    
    144      1     91    189      -728.1    
    145      1     92    185      -728.1    
    146      1     87    183      -728.1    
    147      1     92    182      -728.1    
    148      1     90    182      -728.1    
    149      1     88    179      -728.1    
    150      1     89    176      -728.1    
    151      1     92    172      -728.1    
    152      1     93    164      -728.1    
    153      1     94    162      -728.1    
    154      1    103    156      -728.1    
    155      1    103    156      -728.1    
    156      1     96    154      -728.1    
    157      1     97    153      -728.1    
    158      1    122    139      -728.1    
    159      1     92     77      -728.1    
    160      1     94     77      -728.1    
    161      1     94     73      -728.1    
    162      1     97    152      -728.1    
    163      1    118    337      -666.7    
    164      1    133    319      -2678.    
    165      1    131    320      -3951.    
    166      1    133    321      -2956.    
    167      1    161    329      -2141.    
    168      1    178    330      -551.0    
    169      1    163    330      -1122.    
    170      1    131    320      -2473.    
    171      1    129    315      -3937.    
    172      1    162    329      -1959.    
    173      1    131    311      -826.1    
    174      1    221    340      -1994.    
    175      1    220    340      -1034.    
    176      1    221    340      -667.7    
    177      1    137    322      -2082.    
    178      1    137    321      -1407.    
    179      1    185    329      -2012.    
    180      1    183    329      -1473.    
    181      1    175    329      -585.3    
    182      1     79    243      -1490.    
    183      1     77    245      -2414.    
    184      1    199    329      -1617.    
    185      1    198    330      -2514.    
    186      1    140    328      -972.1    
    187      1    143    327      -863.6    
    188      1    139    327      -1331.    

    188 WELLS

 REUSING NON-PARAMETER DRAINS FROM LAST STRESS PERIOD

   1061 DRAINS

 REUSING SURF FROM LAST STRESS PERIOD

 REUSING EVTR FROM LAST STRESS PERIOD

 REUSING EXDP FROM LAST STRESS PERIOD



                           RECHARGE
 READING ON UNIT   19 WITH FORMAT: (510E15.6)          

 SOLVING FOR HEAD 
                                                   Max.-Head-Change                        Max.-Flux-Residual
  Residual-Control   Outer-Iter.   Inner-Iter.     Column Row Layer    Max.-Head-Change    Column Row Layer    Max.-Flux-Residual            L2-New               L2-Old           Solver-Max-Delh
          0                 1           3           263   79     1      -0.2914328435E+01     263   79    1      -0.1037994690E+04      0.7594509844E+04      0.3399609044E+02     -0.2914328435E+01
          0                 2           2           263   79     1       0.2464625461E+00     465  452    1       0.3536261834E+03      0.9096807544E+03      0.7594509844E+04      0.2464625461E+00
          0                 3           2           458  452     1       0.3102223495E-01     465  452    1       0.1769003862E+02      0.4586082047E+02      0.9096807544E+03      0.3102223495E-01

    ------------------------------------------------
       NWT REQUIRED            3 OUTER ITERATIONS 
       AND A TOTAL OF          7 INNER ITERATIONS.
    ------------------------------------------------

 NO OUTPUT CONTROL FOR STRESS PERIOD   49   TIME STEP    1

 WELLS WITH REDUCED PUMPING FOR STRESS PERIOD    49 TIME STEP     1
   LAY   ROW   COL         APPL.Q          ACT.Q        GW-HEAD       CELL-BOT
     1    77   213  -0.728135E+03  -0.505961E+03   0.155576E+03   0.148000E+03
     1    92    77  -0.728135E+03  -0.445268E+03  -0.791428E+02  -0.930000E+02
     1    94    77  -0.728135E+03  -0.211432E+03  -0.939412E+02  -0.102000E+03
     1    94    73  -0.728135E+03  -0.241781E+03  -0.662084E+02  -0.740000E+02


 SOLVING FOR HEAD 
                                                   Max.-Head-Change                        Max.-Flux-Residual
  Residual-Control   Outer-Iter.   Inner-Iter.     Column Row Layer    Max.-Head-Change    Column Row Layer    Max.-Flux-Residual            L2-New               L2-Old           Solver-Max-Delh
          0                 1           3           263   79     1      -0.1119198602E+01     139  122    1       0.6650579344E+03      0.4833702405E+04      0.4586082047E+02     -0.1119198602E+01
          0                 2           2           263   79     1       0.9620589310E-01     458  434    1       0.1781819133E+03      0.5265603457E+03      0.4833702405E+04      0.9620589310E-01

    ------------------------------------------------
       NWT REQUIRED            2 OUTER ITERATIONS 
       AND A TOTAL OF          5 INNER ITERATIONS.
    ------------------------------------------------

 NO OUTPUT CONTROL FOR STRESS PERIOD   49   TIME STEP    2

 WELLS WITH REDUCED PUMPING FOR STRESS PERIOD    49 TIME STEP     2
   LAY   ROW   COL         APPL.Q          ACT.Q        GW-HEAD       CELL-BOT
     1    77   213  -0.728135E+03  -0.516412E+03   0.155700E+03   0.148000E+03
     1    92    77  -0.728135E+03  -0.436976E+03  -0.793296E+02  -0.930000E+02
     1    94    77  -0.728135E+03  -0.214144E+03  -0.938801E+02  -0.102000E+03
     1    94    73  -0.728135E+03  -0.245702E+03  -0.661321E+02  -0.740000E+02


 SOLVING FOR HEAD 
                                                   Max.-Head-Change                        Max.-Flux-Residual
  Residual-Control   Outer-Iter.   Inner-Iter.     Column Row Layer    Max.-Head-Change    Column Row Layer    Max.-Flux-Residual            L2-New               L2-Old           Solver-Max-Delh
          0                 1           3           263   79     1      -0.4346874680E+00     197   82    1       0.6487503530E+03      0.4194998680E+04      0.2633167057E+02     -0.4346874680E+00
          0                 2           2           263   79     1       0.3751080596E-01     197   82    1      -0.6488344568E+02      0.4223725790E+03      0.4194998680E+04      0.3751080596E-01

    ------------------------------------------------
       NWT REQUIRED            2 OUTER ITERATIONS 
       AND A TOTAL OF          5 INNER ITERATIONS.
    ------------------------------------------------

 NO OUTPUT CONTROL FOR STRESS PERIOD   49   TIME STEP    3

 WELLS WITH REDUCED PUMPING FOR STRESS PERIOD    49 TIME STEP     3
   LAY   ROW   COL         APPL.Q          ACT.Q        GW-HEAD       CELL-BOT
     1    77   213  -0.728135E+03  -0.526333E+03   0.155819E+03   0.148000E+03
     1    92    77  -0.728135E+03  -0.430788E+03  -0.794684E+02  -0.930000E+02
     1    94    77  -0.728135E+03  -0.216816E+03  -0.938200E+02  -0.102000E+03
     1    94    73  -0.728135E+03  -0.249554E+03  -0.660574E+02  -0.740000E+02


 SOLVING FOR HEAD 
                                                   Max.-Head-Change                        Max.-Flux-Residual
  Residual-Control   Outer-Iter.   Inner-Iter.     Column Row Layer    Max.-Head-Change    Column Row Layer    Max.-Flux-Residual            L2-New               L2-Old           Solver-Max-Delh
          0                 1           3           197   82     1       0.2613539064E+00     197   82    1       0.6377238368E+03      0.3871705929E+04      0.4223725790E+03      0.2613539064E+00
          0                 2           2           458  452     1       0.2972580973E-01     462  430    1       0.1225058053E+03      0.4061536702E+03      0.3871705929E+04      0.2972580973E-01

    ------------------------------------------------
       NWT REQUIRED            2 OUTER ITERATIONS 
       AND A TOTAL OF          5 INNER ITERATIONS.
    ------------------------------------------------

 NO OUTPUT CONTROL FOR STRESS PERIOD   49   TIME STEP    4

 WELLS WITH REDUCED PUMPING FOR STRESS PERIOD    49 TIME STEP     4
   LAY   ROW   COL         APPL.Q          ACT.Q        GW-HEAD       CELL-BOT
     1    77   213  -0.728135E+03  -0.535748E+03   0.155934E+03   0.148000E+03
     1    92    77  -0.728135E+03  -0.426163E+03  -0.795720E+02  -0.930000E+02
     1    94    77  -0.728135E+03  -0.219447E+03  -0.937611E+02  -0.102000E+03
     1    94    73  -0.728135E+03  -0.253337E+03  -0.659843E+02  -0.740000E+02


 SOLVING FOR HEAD 
                                                   Max.-Head-Change                        Max.-Flux-Residual
  Residual-Control   Outer-Iter.   Inner-Iter.     Column Row Layer    Max.-Head-Change    Column Row Layer    Max.-Flux-Residual            L2-New               L2-Old           Solver-Max-Delh
          0                 1           3           197   82     1       0.2569215658E+00     197   82    1       0.6268980472E+03      0.3670142559E+04      0.4061536702E+03      0.2569215658E+00
          0                 2           2           458  452     1       0.2928883428E-01     197   82    1      -0.6269775510E+02      0.3671099627E+03      0.3670142559E+04      0.2928883428E-01

    ------------------------------------------------
       NWT REQUIRED            2 OUTER ITERATIONS 
       AND A TOTAL OF          5 INNER ITERATIONS.
    ------------------------------------------------

 NO OUTPUT CONTROL FOR STRESS PERIOD   49   TIME STEP    5

 WELLS WITH REDUCED PUMPING FOR STRESS PERIOD    49 TIME STEP     5
   LAY   ROW   COL         APPL.Q          ACT.Q        GW-HEAD       CELL-BOT
     1    77   213  -0.728135E+03  -0.544682E+03   0.156044E+03   0.148000E+03
     1    92    77  -0.728135E+03  -0.422695E+03  -0.796494E+02  -0.930000E+02
     1    94    77  -0.728135E+03  -0.222038E+03  -0.937033E+02  -0.102000E+03
     1    94    73  -0.728135E+03  -0.257050E+03  -0.659128E+02  -0.740000E+02


 SOLVING FOR HEAD 
                                                   Max.-Head-Change                        Max.-Flux-Residual
  Residual-Control   Outer-Iter.   Inner-Iter.     Column Row Layer    Max.-Head-Change    Column Row Layer    Max.-Flux-Residual            L2-New               L2-Old           Solver-Max-Delh
          0                 1           3           197   82     1       0.2525725254E+00     197   82    1       0.6162738196E+03      0.3530072264E+04      0.3671099627E+03      0.2525725254E+00
          0                 2           2           458  452     1       0.2884966910E-01     197   82    1      -0.6163512093E+02      0.3530929933E+03      0.3530072264E+04      0.2884966910E-01

    ------------------------------------------------
       NWT REQUIRED            2 OUTER ITERATIONS 
       AND A TOTAL OF          5 INNER ITERATIONS.
    ------------------------------------------------

 NO OUTPUT CONTROL FOR STRESS PERIOD   49   TIME STEP    6

 WELLS WITH REDUCED PUMPING FOR STRESS PERIOD    49 TIME STEP     6
   LAY   ROW   COL         APPL.Q          ACT.Q        GW-HEAD       CELL-BOT
     1    77   213  -0.728135E+03  -0.553159E+03   0.156150E+03   0.148000E+03
     1    92    77  -0.728135E+03  -0.420081E+03  -0.797078E+02  -0.930000E+02
     1    94    77  -0.728135E+03  -0.224588E+03  -0.936466E+02  -0.102000E+03
     1    94    73  -0.728135E+03  -0.260695E+03  -0.658428E+02  -0.740000E+02


 SOLVING FOR HEAD 
                                                   Max.-Head-Change                        Max.-Flux-Residual
  Residual-Control   Outer-Iter.   Inner-Iter.     Column Row Layer    Max.-Head-Change    Column Row Layer    Max.-Flux-Residual            L2-New               L2-Old           Solver-Max-Delh
          0                 1           3           197   82     1       0.2483054747E+00     197   82    1       0.6058489106E+03      0.3423131340E+04      0.3530929933E+03      0.2483054747E+00
          0                 2           2           458  452     1       0.2840861876E-01     197   82    1      -0.6059242656E+02      0.3423280525E+03      0.3423131340E+04      0.2840861876E-01

    ------------------------------------------------
       NWT REQUIRED            2 OUTER ITERATIONS 
       AND A TOTAL OF          5 INNER ITERATIONS.
    ------------------------------------------------

 NO OUTPUT CONTROL FOR STRESS PERIOD   49   TIME STEP    7

 WELLS WITH REDUCED PUMPING FOR STRESS PERIOD    49 TIME STEP     7
   LAY   ROW   COL         APPL.Q          ACT.Q        GW-HEAD       CELL-BOT
     1    77   213  -0.728135E+03  -0.561202E+03   0.156252E+03   0.148000E+03
     1    92    77  -0.728135E+03  -0.418097E+03  -0.797520E+02  -0.930000E+02
     1    94    77  -0.728135E+03  -0.227097E+03  -0.935909E+02  -0.102000E+03
     1    94    73  -0.728135E+03  -0.264271E+03  -0.657743E+02  -0.740000E+02


 SOLVING FOR HEAD 
                                                   Max.-Head-Change                        Max.-Flux-Residual
  Residual-Control   Outer-Iter.   Inner-Iter.     Column Row Layer    Max.-Head-Change    Column Row Layer    Max.-Flux-Residual            L2-New               L2-Old           Solver-Max-Delh
          0                 1           3           197   82     1       0.2441189959E+00     197   82    1       0.5956203247E+03      0.3337227460E+04      0.3423280525E+03      0.2441189959E+00
          0                 2           2           458  452     1       0.2796598387E-01     197   82    1      -0.5956937118E+02      0.3337569059E+03      0.3337227460E+04      0.2796598387E-01

    ------------------------------------------------
       NWT REQUIRED            2 OUTER ITERATIONS 
       AND A TOTAL OF          5 INNER ITERATIONS.
    ------------------------------------------------

 NO OUTPUT CONTROL FOR STRESS PERIOD   49   TIME STEP    8

 WELLS WITH REDUCED PUMPING FOR STRESS PERIOD    49 TIME STEP     8
   LAY   ROW   COL         APPL.Q          ACT.Q        GW-HEAD       CELL-BOT
     1    77   213  -0.728135E+03  -0.568832E+03   0.156351E+03   0.148000E+03
     1    92    77  -0.728135E+03  -0.416576E+03  -0.797859E+02  -0.930000E+02
     1    94    77  -0.728135E+03  -0.229566E+03  -0.935362E+02  -0.102000E+03
     1    94    73  -0.728135E+03  -0.267779E+03  -0.657072E+02  -0.740000E+02


 SOLVING FOR HEAD 
                                                   Max.-Head-Change                        Max.-Flux-Residual
  Residual-Control   Outer-Iter.   Inner-Iter.     Column Row Layer    Max.-Head-Change    Column Row Layer    Max.-Flux-Residual            L2-New               L2-Old           Solver-Max-Delh
          0                 1           3           197   82     1       0.2400116577E+00     197   82    1       0.5855847953E+03      0.3264979247E+04      0.3337569059E+03      0.2400116577E+00
          0                 2           2           458  452     1       0.2752206127E-01     197   82    1      -0.5856562745E+02      0.3265665084E+03      0.3264979247E+04      0.2752206127E-01

    ------------------------------------------------
       NWT REQUIRED            2 OUTER ITERATIONS 
       AND A TOTAL OF          5 INNER ITERATIONS.
    ------------------------------------------------

 NO OUTPUT CONTROL FOR STRESS PERIOD   49   TIME STEP    9

 WELLS WITH REDUCED PUMPING FOR STRESS PERIOD    49 TIME STEP     9
   LAY   ROW   COL         APPL.Q          ACT.Q        GW-HEAD       CELL-BOT
     1    77   213  -0.728135E+03  -0.576073E+03   0.156446E+03   0.148000E+03
     1    92    77  -0.728135E+03  -0.415398E+03  -0.798122E+02  -0.930000E+02
     1    94    77  -0.728135E+03  -0.231995E+03  -0.934826E+02  -0.102000E+03
     1    94    73  -0.728135E+03  -0.271220E+03  -0.656416E+02  -0.740000E+02


 SOLVING FOR HEAD 
                                                   Max.-Head-Change                        Max.-Flux-Residual
  Residual-Control   Outer-Iter.   Inner-Iter.     Column Row Layer    Max.-Head-Change    Column Row Layer    Max.-Flux-Residual            L2-New               L2-Old           Solver-Max-Delh
          0                 1           3           197   82     1       0.2359819181E+00     197   82    1       0.5757386904E+03      0.3202095921E+04      0.3265665084E+03      0.2359819181E+00
          0                 2           2           458  452     1       0.2707714281E-01     197   82    1      -0.5758083173E+02      0.3202155332E+03      0.3202095921E+04      0.2707714281E-01

    ------------------------------------------------
       NWT REQUIRED            2 OUTER ITERATIONS 
       AND A TOTAL OF          5 INNER ITERATIONS.
    ------------------------------------------------

 OUTPUT CONTROL FOR STRESS PERIOD   49   TIME STEP   10
    SAVE HEAD FOR ALL LAYERS

 WELLS WITH REDUCED PUMPING FOR STRESS PERIOD    49 TIME STEP    10
   LAY   ROW   COL         APPL.Q          ACT.Q        GW-HEAD       CELL-BOT
     1    77   213  -0.728135E+03  -0.582943E+03   0.156537E+03   0.148000E+03
     1    92    77  -0.728135E+03  -0.414470E+03  -0.798328E+02  -0.930000E+02
     1    94    77  -0.728135E+03  -0.234385E+03  -0.934299E+02  -0.102000E+03
     1    94    73  -0.728135E+03  -0.274595E+03  -0.655775E+02  -0.740000E+02


 HEAD WILL BE SAVED ON UNIT   51 AT END OF TIME STEP   10, STRESS PERIOD   49
1
  VOLUMETRIC BUDGET FOR ENTIRE MODEL AT END OF TIME STEP   10, STRESS PERIOD  49
  ------------------------------------------------------------------------------

     CUMULATIVE VOLUMES      L**3       RATES FOR THIS TIME STEP      L**3/T
     ------------------                 ------------------------

           IN:                                      IN:
           ---                                      ---
             STORAGE =   500974816.0000               STORAGE =      104890.4297
       CONSTANT HEAD =    75218680.0000         CONSTANT HEAD =       52015.1172
               WELLS =           0.0000                 WELLS =           0.0000
              DRAINS =           0.0000                DRAINS =           0.0000
                  ET =           0.0000                    ET =           0.0000
            RECHARGE =   294096768.0000              RECHARGE =      246822.0625

            TOTAL IN =   870290240.0000              TOTAL IN =      403727.6250

          OUT:                                     OUT:
          ----                                     ----
             STORAGE =   182038736.0000               STORAGE =       68187.3594
       CONSTANT HEAD =           0.0000         CONSTANT HEAD =           0.0000
               WELLS =   448982272.0000                 WELLS =      142050.8125
              DRAINS =   167778208.0000                DRAINS =      141336.5156
                  ET =    70462184.0000                    ET =       51973.4414
            RECHARGE =       81860.0000              RECHARGE =           0.0000

           TOTAL OUT =   869343296.0000             TOTAL OUT =      403548.1250

            IN - OUT =      946944.0000              IN - OUT =         179.5000

 PERCENT DISCREPANCY =           0.11     PERCENT DISCREPANCY =           0.04






         TIME SUMMARY AT END OF TIME STEP   10 IN STRESS PERIOD   49
                    SECONDS     MINUTES      HOURS       DAYS        YEARS
                    -----------------------------------------------------------
   TIME STEP LENGTH 2.62656E+05  4377.6      72.960      3.0400     8.32307E-03
 STRESS PERIOD TIME 2.62656E+06  43776.      729.60      30.400     8.32307E-02
         TOTAL TIME 1.28702E+08 2.14503E+06  35750.      1489.6      4.0783    
1
1
                            STRESS PERIOD NO.   50, LENGTH =   30.40000    
                            -----------------------------------------------

                              NUMBER OF TIME STEPS =    10

                               MULTIPLIER FOR DELT =     1.000

                            INITIAL TIME STEP SIZE =   3.040000    

 WELL NO.  LAYER   ROW   COL   STRESS RATE         
 --------------------------------------------------
      1      1     69    225      -4234.    
      2      1     71    224       0.000    
      3      1     74    220       0.000    
      4      1     73    220       0.000    
      5      1     71    223       0.000    
      6      1     71    223       0.000    
      7      1     72    223       0.000    
      8      1     92    173       0.000    
      9      1     94    174       0.000    
     10      1     93    175       0.000    
     11      1    203    328       0.000    
     12      1    438    460      -2609.    
     13      1    436    461      -2609.    
     14      1    410    454      -2609.    
     15      1    433    460      -2609.    
     16      1    431    462      -2609.    
     17      1    417    459      -2609.    
     18      1    418    458      -2609.    
     19      1    414    455      -2609.    
     20      1    443    464      -2609.    
     21      1    379    425      -2609.    
     22      1    362    405      -2609.    
     23      1    361    405      -2609.    
     24      1    362    406      -2609.    
     25      1    363    408      -2609.    
     26      1    364    410      -2609.    
     27      1    369    418      -2609.    
     28      1    367    417      -2609.    
     29      1    365    415      -2609.    
     30      1    402    447      -2609.    
     31      1    400    446      -2609.    
     32      1    392    444      -2609.    
     33      1    391    441      -2609.    
     34      1    403    448      -2609.    
     35      1    405    447      -2609.    
     36      1    362    410      -2609.    
     37      1    362    411      -2609.    
     38      1    363    412      -2609.    
     39      1    375    421      -2609.    
     40      1    383    430      -2609.    
     41      1    397    445      -2609.    
     42      1    360    403      -2609.    
     43      1    350    401      -2609.    
     44      1    346    393      -3266.    
     45      1    333    387      -3266.    
     46      1    328    384      -3266.    
     47      1    326    383      -3266.    
     48      1    323    378      -3266.    
     49      1    321    378      -3266.    
     50      1    322    376      -3266.    
     51      1    316    374      -3266.    
     52      1    311    371      -3266.    
     53      1    307    369      -3266.    
     54      1    305    368      -3266.    
     55      1    303    368      -3266.    
     56      1    300    369      -3266.    
     57      1    293    364      -3266.    
     58      1    292    362      -3266.    
     59      1    278    350      -3266.    
     60      1    274    351      -3266.    
     61      1    273    350      -3266.    
     62      1    271    350      -3266.    
     63      1    267    348      -3266.    
     64      1    263    348      -3266.    
     65      1    263    348      -3266.    
     66      1    248    347      -3266.    
     67      1    243    342      -3266.    
     68      1    242    339      -3266.    
     69      1    238    341      -3266.    
     70      1    233    340      -3266.    
     71      1    232    340      -3266.    
     72      1    229    341      -3266.    
     73      1    227    341      -3266.    
     74      1    219    342      -3266.    
     75      1    219    336      -3266.    
     76      1    199    329      -3266.    
     77      1    191    332      -4641.    
     78      1    190    332      -4641.    
     79      1    130    310      -4641.    
     80      1    123    305      -4641.    
     81      1    104    289      -4641.    
     82      1     96    287      -4290.    
     83      1     95    284      -4290.    
     84      1     95    280      -4290.    
     85      1     93    276      -4290.    
     86      1     94    275      -4290.    
     87      1     90    277      -4290.    
     88      1     90    273      -4290.    
     89      1     86    271      -4290.    
     90      1     85    270      -4290.    
     91      1     84    265      -4290.    
     92      1     85    265      -4290.    
     93      1     84    264      -4290.    
     94      1     79    263      -4290.    
     95      1     79    263      -4290.    
     96      1     76    262      -4290.    
     97      1     73    257      -4290.    
     98      1     74    255      -4290.    
     99      1     71    255      -4290.    
    100      1     66    253      -4290.    
    101      1     68    252      -4290.    
    102      1     69    250      -4290.    
    103      1     65    248      -4290.    
    104      1     68    248      -4290.    
    105      1     69    247      -4290.    
    106      1     73    247      -4290.    
    107      1     64    246      -4290.    
    108      1     69    245      -4290.    
    109      1     72    245      -4290.    
    110      1     69    241      -4290.    
    111      1     73    238      -4290.    
    112      1     70    238      -4290.    
    113      1     76    263      -4290.    
    114      1     66    232      -2310.    
    115      1     69    229      -2310.    
    116      1     71    228      -2310.    
    117      1     69    227      -2310.    
    118      1     72    219      -2310.    
    119      1     72    218      -2310.    
    120      1     72    218      -2310.    
    121      1     73    217      -2310.    
    122      1     77    219      -2310.    
    123      1     78    219      -2310.    
    124      1     83    213      -2310.    
    125      1     77    213      -2310.    
    126      1     81    211      -2310.    
    127      1     81    210      -2310.    
    128      1     81    210      -2310.    
    129      1     82    208      -2310.    
    130      1     80    205      -2310.    
    131      1     86    202      -2310.    
    132      1     84    200      -2310.    
    133      1     89    200      -2310.    
    134      1     89    199      -2310.    
    135      1     88    199      -2310.    
    136      1     86    199      -2310.    
    137      1     85    199      -2310.    
    138      1     82    197      -2310.    
    139      1     86    197      -2310.    
    140      1     88    198      -2310.    
    141      1     90    192      -2310.    
    142      1     89    191      -2310.    
    143      1     84    192      -2310.    
    144      1     91    189      -2310.    
    145      1     92    185      -2310.    
    146      1     87    183      -2310.    
    147      1     92    182      -2310.    
    148      1     90    182      -2310.    
    149      1     88    179      -2310.    
    150      1     89    176      -2310.    
    151      1     92    172      -2310.    
    152      1     93    164      -2310.    
    153      1     94    162      -2310.    
    154      1    103    156      -2310.    
    155      1    103    156      -2310.    
    156      1     96    154      -2310.    
    157      1     97    153      -2310.    
    158      1    122    139      -2310.    
    159      1     92     77      -2310.    
    160      1     94     77      -2310.    
    161      1     94     73      -2310.    
    162      1     97    152      -2310.    
    163      1    118    337      -666.7    
    164      1    133    319      -2678.    
    165      1    131    320      -3951.    
    166      1    133    321      -2956.    
    167      1    161    329      -2141.    
    168      1    178    330      -551.0    
    169      1    163    330      -1122.    
    170      1    131    320      -2473.    
    171      1    129    315      -3937.    
    172      1    162    329      -1959.    
    173      1    131    311      -826.1    
    174      1    221    340      -1994.    
    175      1    220    340      -1034.    
    176      1    221    340      -667.7    
    177      1    137    322      -2082.    
    178      1    137    321      -1407.    
    179      1    185    329      -2012.    
    180      1    183    329      -1473.    
    181      1    175    329      -585.3    
    182      1     79    243      -1490.    
    183      1     77    245      -2414.    
    184      1    199    329      -1617.    
    185      1    198    330      -2514.    
    186      1    140    328      -972.1    
    187      1    143    327      -863.6    
    188      1    139    327      -1331.    

    188 WELLS

 REUSING NON-PARAMETER DRAINS FROM LAST STRESS PERIOD

   1061 DRAINS

 REUSING SURF FROM LAST STRESS PERIOD

 REUSING EVTR FROM LAST STRESS PERIOD

 REUSING EXDP FROM LAST STRESS PERIOD



                           RECHARGE
 READING ON UNIT   19 WITH FORMAT: (510E15.6)          

 SOLVING FOR HEAD 
                                                   Max.-Head-Change                        Max.-Flux-Residual
  Residual-Control   Outer-Iter.   Inner-Iter.     Column Row Layer    Max.-Head-Change    Column Row Layer    Max.-Flux-Residual            L2-New               L2-Old           Solver-Max-Delh
          0                 1           3           263   79     1      -0.1884000549E+02     263   79    1      -0.6465735016E+04      0.3297578007E+05      0.3202155332E+03     -0.1884000549E+02
          0                 2           2           263   79     1       0.1435153567E+01     238   70    1       0.6195470303E+03      0.3322646950E+04      0.3297578007E+05      0.1435153567E+01
          0                 3           2           263   79     1       0.7012892264E-01     238   70    1       0.3094606959E+02      0.1657191360E+03      0.3322646950E+04      0.7012892264E-01

    ------------------------------------------------
       NWT REQUIRED            3 OUTER ITERATIONS 
       AND A TOTAL OF          7 INNER ITERATIONS.
    ------------------------------------------------

 NO OUTPUT CONTROL FOR STRESS PERIOD   50   TIME STEP    1

 WELLS WITH REDUCED PUMPING FOR STRESS PERIOD    50 TIME STEP     1
   LAY   ROW   COL         APPL.Q          ACT.Q        GW-HEAD       CELL-BOT
     1    77   213  -0.230952E+04  -0.176420E+04   0.156189E+03   0.148000E+03
     1    92    77  -0.230952E+04  -0.863284E+03  -0.829960E+02  -0.930000E+02
     1    94    77  -0.230952E+04  -0.725344E+03  -0.935557E+02  -0.102000E+03
     1    94    73  -0.230952E+04  -0.846799E+03  -0.657226E+02  -0.740000E+02


 SOLVING FOR HEAD 
                                                   Max.-Head-Change                        Max.-Flux-Residual
  Residual-Control   Outer-Iter.   Inner-Iter.     Column Row Layer    Max.-Head-Change    Column Row Layer    Max.-Flux-Residual            L2-New               L2-Old           Solver-Max-Delh
          0                 1           3           263   79     1      -0.7914584280E+01     332  190    1      -0.2668301549E+04      0.1739305683E+05      0.1657191360E+03     -0.7914584280E+01
          0                 2           2           263   79     1       0.6340385736E+00     332  190    1       0.2616982751E+03      0.1726948306E+04      0.1739305683E+05      0.6340385736E+00
          0                 3           2           263   79     1       0.3125771307E-01     332  190    1       0.1304778330E+02      0.8626137286E+02      0.1726948306E+04      0.3125771307E-01

    ------------------------------------------------
       NWT REQUIRED            3 OUTER ITERATIONS 
       AND A TOTAL OF          7 INNER ITERATIONS.
    ------------------------------------------------

 NO OUTPUT CONTROL FOR STRESS PERIOD   50   TIME STEP    2

 WELLS WITH REDUCED PUMPING FOR STRESS PERIOD    50 TIME STEP     2
   LAY   ROW   COL         APPL.Q          ACT.Q        GW-HEAD       CELL-BOT
     1    77   213  -0.230952E+04  -0.168346E+04   0.155873E+03   0.148000E+03
     1    92    77  -0.230952E+04  -0.653214E+03  -0.845447E+02  -0.930000E+02
     1    94    77  -0.230952E+04  -0.708296E+03  -0.936750E+02  -0.102000E+03
     1    94    73  -0.230952E+04  -0.824194E+03  -0.658590E+02  -0.740000E+02


 SOLVING FOR HEAD 
                                                   Max.-Head-Change                        Max.-Flux-Residual
  Residual-Control   Outer-Iter.   Inner-Iter.     Column Row Layer    Max.-Head-Change    Column Row Layer    Max.-Flux-Residual            L2-New               L2-Old           Solver-Max-Delh
          0                 1           3           263   79     1      -0.3684966415E+01     374  316    1      -0.2124150361E+04      0.1406074491E+05      0.8626137286E+02     -0.3684966415E+01
          0                 2           2           263   79     1       0.3047778043E+00     374  316    1       0.2122426517E+03      0.1403358233E+04      0.1406074491E+05      0.3047778043E+00
          0                 3           2           458  452     1       0.2475028268E-01     374  316    1       0.1061084916E+02      0.7013850085E+02      0.1403358233E+04      0.2475028268E-01

    ------------------------------------------------
       NWT REQUIRED            3 OUTER ITERATIONS 
       AND A TOTAL OF          7 INNER ITERATIONS.
    ------------------------------------------------

 NO OUTPUT CONTROL FOR STRESS PERIOD   50   TIME STEP    3

 WELLS WITH REDUCED PUMPING FOR STRESS PERIOD    50 TIME STEP     3
   LAY   ROW   COL         APPL.Q          ACT.Q        GW-HEAD       CELL-BOT
     1    77   213  -0.230952E+04  -0.160774E+04   0.155587E+03   0.148000E+03
     1    92    77  -0.230952E+04  -0.553484E+03  -0.853241E+02  -0.930000E+02
     1    94    77  -0.230952E+04  -0.692222E+03  -0.937881E+02  -0.102000E+03
     1    94    73  -0.230952E+04  -0.803048E+03  -0.659873E+02  -0.740000E+02


 SOLVING FOR HEAD 
                                                   Max.-Head-Change                        Max.-Flux-Residual
  Residual-Control   Outer-Iter.   Inner-Iter.     Column Row Layer    Max.-Head-Change    Column Row Layer    Max.-Flux-Residual            L2-New               L2-Old           Solver-Max-Delh
          0                 1           3           263   79     1      -0.1947558083E+01     374  316    1      -0.1906235330E+04      0.1243969095E+05      0.7013850085E+02     -0.1947558083E+01
          0                 2           2           263   79     1       0.1640261314E+00     374  316    1       0.1904645096E+03      0.1242101658E+04      0.1243969095E+05      0.1640261314E+00
          0                 3           2           458  452     1       0.2400227419E-01     374  316    1       0.9522047395E+01      0.6208890065E+02      0.1242101658E+04      0.2400227419E-01

    ------------------------------------------------
       NWT REQUIRED            3 OUTER ITERATIONS 
       AND A TOTAL OF          7 INNER ITERATIONS.
    ------------------------------------------------

 NO OUTPUT CONTROL FOR STRESS PERIOD   50   TIME STEP    4

 WELLS WITH REDUCED PUMPING FOR STRESS PERIOD    50 TIME STEP     4
   LAY   ROW   COL         APPL.Q          ACT.Q        GW-HEAD       CELL-BOT
     1    77   213  -0.230952E+04  -0.153755E+04   0.155329E+03   0.148000E+03
     1    92    77  -0.230952E+04  -0.504346E+03  -0.857236E+02  -0.930000E+02
     1    94    77  -0.230952E+04  -0.677059E+03  -0.938955E+02  -0.102000E+03
     1    94    73  -0.230952E+04  -0.783260E+03  -0.661080E+02  -0.740000E+02


 SOLVING FOR HEAD 
                                                   Max.-Head-Change                        Max.-Flux-Residual
  Residual-Control   Outer-Iter.   Inner-Iter.     Column Row Layer    Max.-Head-Change    Column Row Layer    Max.-Flux-Residual            L2-New               L2-Old           Solver-Max-Delh
          0                 1           3           263   79     1      -0.1180448461E+01     378  321    1      -0.1716554331E+04      0.1145088718E+05      0.6208890065E+02     -0.1180448461E+01
          0                 2           2           263   79     1       0.1004151614E+00     378  321    1       0.1715119535E+03      0.1143849339E+04      0.1145088718E+05      0.1004151614E+00
          0                 3           2           458  452     1       0.2326835743E-01     378  321    1       0.8574523902E+01      0.5719077940E+02      0.1143849339E+04      0.2326835743E-01

    ------------------------------------------------
       NWT REQUIRED            3 OUTER ITERATIONS 
       AND A TOTAL OF          7 INNER ITERATIONS.
    ------------------------------------------------

 NO OUTPUT CONTROL FOR STRESS PERIOD   50   TIME STEP    5

 WELLS WITH REDUCED PUMPING FOR STRESS PERIOD    50 TIME STEP     5
   LAY   ROW   COL         APPL.Q          ACT.Q        GW-HEAD       CELL-BOT
     1    77   213  -0.230952E+04  -0.147303E+04   0.155096E+03   0.148000E+03
     1    92    77  -0.230952E+04  -0.479479E+03  -0.859305E+02  -0.930000E+02
     1    94    77  -0.230952E+04  -0.662751E+03  -0.939973E+02  -0.102000E+03
     1    94    73  -0.230952E+04  -0.764737E+03  -0.662216E+02  -0.740000E+02


 SOLVING FOR HEAD 
                                                   Max.-Head-Change                        Max.-Flux-Residual
  Residual-Control   Outer-Iter.   Inner-Iter.     Column Row Layer    Max.-Head-Change    Column Row Layer    Max.-Flux-Residual            L2-New               L2-Old           Solver-Max-Delh
          0                 1           3           264   78     1      -0.9416302365E+00     378  321    1      -0.1570620824E+04      0.1077125154E+05      0.5719077940E+02     -0.9416302365E+00
          0                 2           2           264   78     1       0.8008980455E-01     378  321    1       0.1569262755E+03      0.1076772167E+04      0.1077125154E+05      0.8008980455E-01

    ------------------------------------------------
       NWT REQUIRED            2 OUTER ITERATIONS 
       AND A TOTAL OF          5 INNER ITERATIONS.
    ------------------------------------------------

 NO OUTPUT CONTROL FOR STRESS PERIOD   50   TIME STEP    6

 WELLS WITH REDUCED PUMPING FOR STRESS PERIOD    50 TIME STEP     6
   LAY   ROW   COL         APPL.Q          ACT.Q        GW-HEAD       CELL-BOT
     1    77   213  -0.230952E+04  -0.141383E+04   0.154885E+03   0.148000E+03
     1    92    77  -0.230952E+04  -0.466637E+03  -0.860388E+02  -0.930000E+02
     1    94    77  -0.230952E+04  -0.649181E+03  -0.940945E+02  -0.102000E+03
     1    94    73  -0.230952E+04  -0.747311E+03  -0.663291E+02  -0.740000E+02


 SOLVING FOR HEAD 
                                                   Max.-Head-Change                        Max.-Flux-Residual
  Residual-Control   Outer-Iter.   Inner-Iter.     Column Row Layer    Max.-Head-Change    Column Row Layer    Max.-Flux-Residual            L2-New               L2-Old           Solver-Max-Delh
          0                 1           3           264   78     1      -0.8037282439E+00     378  321    1      -0.1441191088E+04      0.1026562391E+05      0.5383307531E+02     -0.8037282439E+00
          0                 2           2           264   78     1       0.6842087282E-01     378  321    1       0.1439926073E+03      0.1025962313E+04      0.1026562391E+05      0.6842087282E-01

    ------------------------------------------------
       NWT REQUIRED            2 OUTER ITERATIONS 
       AND A TOTAL OF          5 INNER ITERATIONS.
    ------------------------------------------------

 NO OUTPUT CONTROL FOR STRESS PERIOD   50   TIME STEP    7

 WELLS WITH REDUCED PUMPING FOR STRESS PERIOD    50 TIME STEP     7
   LAY   ROW   COL         APPL.Q          ACT.Q        GW-HEAD       CELL-BOT
     1    77   213  -0.230952E+04  -0.136005E+04   0.154696E+03   0.148000E+03
     1    92    77  -0.230952E+04  -0.460007E+03  -0.860951E+02  -0.930000E+02
     1    94    77  -0.230952E+04  -0.636369E+03  -0.941867E+02  -0.102000E+03
     1    94    73  -0.230952E+04  -0.730992E+03  -0.664302E+02  -0.740000E+02


 SOLVING FOR HEAD 
                                                   Max.-Head-Change                        Max.-Flux-Residual
  Residual-Control   Outer-Iter.   Inner-Iter.     Column Row Layer    Max.-Head-Change    Column Row Layer    Max.-Flux-Residual            L2-New               L2-Old           Solver-Max-Delh
          0                 1           3           264   78     1      -0.6892413325E+00     378  321    1      -0.1326673046E+04      0.9871308122E+04      0.5129409620E+02     -0.6892413325E+00
          0                 2           2           264   78     1       0.5876739490E-01     378  321    1       0.1325506794E+03      0.9866915154E+03      0.9871308122E+04      0.5876739490E-01

    ------------------------------------------------
       NWT REQUIRED            2 OUTER ITERATIONS 
       AND A TOTAL OF          5 INNER ITERATIONS.
    ------------------------------------------------

 NO OUTPUT CONTROL FOR STRESS PERIOD   50   TIME STEP    8

 WELLS WITH REDUCED PUMPING FOR STRESS PERIOD    50 TIME STEP     8
   LAY   ROW   COL         APPL.Q          ACT.Q        GW-HEAD       CELL-BOT
     1    77   213  -0.230952E+04  -0.131139E+04   0.154526E+03   0.148000E+03
     1    92    77  -0.230952E+04  -0.456573E+03  -0.861243E+02  -0.930000E+02
     1    94    77  -0.230952E+04  -0.624269E+03  -0.942743E+02  -0.102000E+03
     1    94    73  -0.230952E+04  -0.715705E+03  -0.665254E+02  -0.740000E+02


 SOLVING FOR HEAD 
                                                   Max.-Head-Change                        Max.-Flux-Residual
  Residual-Control   Outer-Iter.   Inner-Iter.     Column Row Layer    Max.-Head-Change    Column Row Layer    Max.-Flux-Residual            L2-New               L2-Old           Solver-Max-Delh
          0                 1           3           264   78     1      -0.5965427653E+00     378  321    1      -0.1225065473E+04      0.9551404944E+04      0.4933144648E+02     -0.5965427653E+00
          0                 2           2           264   78     1       0.5094986019E-01     378  321    1       0.1223997557E+03      0.9549942136E+03      0.9551404944E+04      0.5094986019E-01

    ------------------------------------------------
       NWT REQUIRED            2 OUTER ITERATIONS 
       AND A TOTAL OF          5 INNER ITERATIONS.
    ------------------------------------------------

 NO OUTPUT CONTROL FOR STRESS PERIOD   50   TIME STEP    9

 WELLS WITH REDUCED PUMPING FOR STRESS PERIOD    50 TIME STEP     9
   LAY   ROW   COL         APPL.Q          ACT.Q        GW-HEAD       CELL-BOT
     1    77   213  -0.230952E+04  -0.126746E+04   0.154374E+03   0.148000E+03
     1    92    77  -0.230952E+04  -0.454793E+03  -0.861395E+02  -0.930000E+02
     1    94    77  -0.230952E+04  -0.612835E+03  -0.943575E+02  -0.102000E+03
     1    94    73  -0.230952E+04  -0.701377E+03  -0.666151E+02  -0.740000E+02


 SOLVING FOR HEAD 
                                                   Max.-Head-Change                        Max.-Flux-Residual
  Residual-Control   Outer-Iter.   Inner-Iter.     Column Row Layer    Max.-Head-Change    Column Row Layer    Max.-Flux-Residual            L2-New               L2-Old           Solver-Max-Delh
          0                 1           3           264   78     1      -0.5220471466E+00     378  321    1      -0.1134671269E+04      0.9283895835E+04      0.4823876972E+02     -0.5220471466E+00
          0                 2           2           264   78     1       0.4465706213E-01     462  430    1       0.1627858368E+03      0.9474979502E+03      0.9283895835E+04      0.4465706213E-01

    ------------------------------------------------
       NWT REQUIRED            2 OUTER ITERATIONS 
       AND A TOTAL OF          5 INNER ITERATIONS.
    ------------------------------------------------

 OUTPUT CONTROL FOR STRESS PERIOD   50   TIME STEP   10
    SAVE HEAD FOR ALL LAYERS

 WELLS WITH REDUCED PUMPING FOR STRESS PERIOD    50 TIME STEP    10
   LAY   ROW   COL         APPL.Q          ACT.Q        GW-HEAD       CELL-BOT
     1    77   213  -0.230952E+04  -0.122788E+04   0.154236E+03   0.148000E+03
     1    92    77  -0.230952E+04  -0.453874E+03  -0.861474E+02  -0.930000E+02
     1    94    77  -0.230952E+04  -0.602028E+03  -0.944366E+02  -0.102000E+03
     1    94    73  -0.230952E+04  -0.687944E+03  -0.666997E+02  -0.740000E+02


 HEAD WILL BE SAVED ON UNIT   51 AT END OF TIME STEP   10, STRESS PERIOD   50
1
  VOLUMETRIC BUDGET FOR ENTIRE MODEL AT END OF TIME STEP   10, STRESS PERIOD  50
  ------------------------------------------------------------------------------

     CUMULATIVE VOLUMES      L**3       RATES FOR THIS TIME STEP      L**3/T
     ------------------                 ------------------------

           IN:                                      IN:
           ---                                      ---
             STORAGE =   513692608.0000               STORAGE =      404918.5312
       CONSTANT HEAD =    76800128.0000         CONSTANT HEAD =       52026.0977
               WELLS =           0.0000                 WELLS =           0.0000
              DRAINS =           0.0000                DRAINS =           0.0000
                  ET =           0.0000                    ET =           0.0000
            RECHARGE =   299769408.0000              RECHARGE =      186599.8125

            TOTAL IN =   890262144.0000              TOTAL IN =      643544.4375

          OUT:                                     OUT:
          ----                                     ----
             STORAGE =   182775744.0000               STORAGE =       16737.1074
       CONSTANT HEAD =           0.0000         CONSTANT HEAD =           0.0000
               WELLS =   462560928.0000                 WELLS =      446219.2188
              DRAINS =   171897280.0000                DRAINS =      130713.9297
                  ET =    71968088.0000                    ET =       47928.2344
            RECHARGE =       81860.0000              RECHARGE =           0.0000

           TOTAL OUT =   889283904.0000             TOTAL OUT =      641598.5000

            IN - OUT =      978240.0000              IN - OUT =        1945.9375

 PERCENT DISCREPANCY =           0.11     PERCENT DISCREPANCY =           0.30






         TIME SUMMARY AT END OF TIME STEP   10 IN STRESS PERIOD   50
                    SECONDS     MINUTES      HOURS       DAYS        YEARS
                    -----------------------------------------------------------
   TIME STEP LENGTH 2.62656E+05  4377.6      72.960      3.0400     8.32307E-03
 STRESS PERIOD TIME 2.62656E+06  43776.      729.60      30.400     8.32307E-02
         TOTAL TIME 1.31328E+08 2.18880E+06  36480.      1520.0      4.1615    
1
1
                            STRESS PERIOD NO.   51, LENGTH =   30.40000    
                            -----------------------------------------------

                              NUMBER OF TIME STEPS =    10

                               MULTIPLIER FOR DELT =     1.000

                            INITIAL TIME STEP SIZE =   3.040000    

 WELL NO.  LAYER   ROW   COL   STRESS RATE         
 --------------------------------------------------
      1      1     69    225      -4320.    
      2      1     71    224       0.000    
      3      1     74    220       0.000    
      4      1     73    220       0.000    
      5      1     71    223       0.000    
      6      1     71    223       0.000    
      7      1     72    223       0.000    
      8      1     92    173       0.000    
      9      1     94    174       0.000    
     10      1     93    175       0.000    
     11      1    203    328       0.000    
     12      1    438    460      -2179.    
     13      1    436    461      -2179.    
     14      1    410    454      -2179.    
     15      1    433    460      -2179.    
     16      1    431    462      -2179.    
     17      1    417    459      -2179.    
     18      1    418    458      -2179.    
     19      1    414    455      -2179.    
     20      1    443    464      -2179.    
     21      1    379    425      -2179.    
     22      1    362    405      -2179.    
     23      1    361    405      -2179.    
     24      1    362    406      -2179.    
     25      1    363    408      -2179.    
     26      1    364    410      -2179.    
     27      1    369    418      -2179.    
     28      1    367    417      -2179.    
     29      1    365    415      -2179.    
     30      1    402    447      -2179.    
     31      1    400    446      -2179.    
     32      1    392    444      -2179.    
     33      1    391    441      -2179.    
     34      1    403    448      -2179.    
     35      1    405    447      -2179.    
     36      1    362    410      -2179.    
     37      1    362    411      -2179.    
     38      1    363    412      -2179.    
     39      1    375    421      -2179.    
     40      1    383    430      -2179.    
     41      1    397    445      -2179.    
     42      1    360    403      -2179.    
     43      1    350    401      -2179.    
     44      1    346    393      -2672.    
     45      1    333    387      -2672.    
     46      1    328    384      -2672.    
     47      1    326    383      -2672.    
     48      1    323    378      -2672.    
     49      1    321    378      -2672.    
     50      1    322    376      -2672.    
     51      1    316    374      -2672.    
     52      1    311    371      -2672.    
     53      1    307    369      -2672.    
     54      1    305    368      -2672.    
     55      1    303    368      -2672.    
     56      1    300    369      -2672.    
     57      1    293    364      -2672.    
     58      1    292    362      -2672.    
     59      1    278    350      -2672.    
     60      1    274    351      -2672.    
     61      1    273    350      -2672.    
     62      1    271    350      -2672.    
     63      1    267    348      -2672.    
     64      1    263    348      -2672.    
     65      1    263    348      -2672.    
     66      1    248    347      -2672.    
     67      1    243    342      -2672.    
     68      1    242    339      -2672.    
     69      1    238    341      -2672.    
     70      1    233    340      -2672.    
     71      1    232    340      -2672.    
     72      1    229    341      -2672.    
     73      1    227    341      -2672.    
     74      1    219    342      -2672.    
     75      1    219    336      -2672.    
     76      1    199    329      -2672.    
     77      1    191    332      -3860.    
     78      1    190    332      -3860.    
     79      1    130    310      -3860.    
     80      1    123    305      -3860.    
     81      1    104    289      -3860.    
     82      1     96    287      -3788.    
     83      1     95    284      -3788.    
     84      1     95    280      -3788.    
     85      1     93    276      -3788.    
     86      1     94    275      -3788.    
     87      1     90    277      -3788.    
     88      1     90    273      -3788.    
     89      1     86    271      -3788.    
     90      1     85    270      -3788.    
     91      1     84    265      -3788.    
     92      1     85    265      -3788.    
     93      1     84    264      -3788.    
     94      1     79    263      -3788.    
     95      1     79    263      -3788.    
     96      1     76    262      -3788.    
     97      1     73    257      -3788.    
     98      1     74    255      -3788.    
     99      1     71    255      -3788.    
    100      1     66    253      -3788.    
    101      1     68    252      -3788.    
    102      1     69    250      -3788.    
    103      1     65    248      -3788.    
    104      1     68    248      -3788.    
    105      1     69    247      -3788.    
    106      1     73    247      -3788.    
    107      1     64    246      -3788.    
    108      1     69    245      -3788.    
    109      1     72    245      -3788.    
    110      1     69    241      -3788.    
    111      1     73    238      -3788.    
    112      1     70    238      -3788.    
    113      1     76    263      -3788.    
    114      1     66    232      -2343.    
    115      1     69    229      -2343.    
    116      1     71    228      -2343.    
    117      1     69    227      -2343.    
    118      1     72    219      -2343.    
    119      1     72    218      -2343.    
    120      1     72    218      -2343.    
    121      1     73    217      -2343.    
    122      1     77    219      -2343.    
    123      1     78    219      -2343.    
    124      1     83    213      -2343.    
    125      1     77    213      -2343.    
    126      1     81    211      -2343.    
    127      1     81    210      -2343.    
    128      1     81    210      -2343.    
    129      1     82    208      -2343.    
    130      1     80    205      -2343.    
    131      1     86    202      -2343.    
    132      1     84    200      -2343.    
    133      1     89    200      -2343.    
    134      1     89    199      -2343.    
    135      1     88    199      -2343.    
    136      1     86    199      -2343.    
    137      1     85    199      -2343.    
    138      1     82    197      -2343.    
    139      1     86    197      -2343.    
    140      1     88    198      -2343.    
    141      1     90    192      -2343.    
    142      1     89    191      -2343.    
    143      1     84    192      -2343.    
    144      1     91    189      -2343.    
    145      1     92    185      -2343.    
    146      1     87    183      -2343.    
    147      1     92    182      -2343.    
    148      1     90    182      -2343.    
    149      1     88    179      -2343.    
    150      1     89    176      -2343.    
    151      1     92    172      -2343.    
    152      1     93    164      -2343.    
    153      1     94    162      -2343.    
    154      1    103    156      -2343.    
    155      1    103    156      -2343.    
    156      1     96    154      -2343.    
    157      1     97    153      -2343.    
    158      1    122    139      -2343.    
    159      1     92     77      -2343.    
    160      1     94     77      -2343.    
    161      1     94     73      -2343.    
    162      1     97    152      -2343.    
    163      1    118    337      -666.7    
    164      1    133    319      -2678.    
    165      1    131    320      -3951.    
    166      1    133    321      -2956.    
    167      1    161    329      -2141.    
    168      1    178    330      -551.0    
    169      1    163    330      -1122.    
    170      1    131    320      -2473.    
    171      1    129    315      -3937.    
    172      1    162    329      -1959.    
    173      1    131    311      -826.1    
    174      1    221    340      -1994.    
    175      1    220    340      -1034.    
    176      1    221    340      -667.7    
    177      1    137    322      -2082.    
    178      1    137    321      -1407.    
    179      1    185    329      -2012.    
    180      1    183    329      -1473.    
    181      1    175    329      -585.3    
    182      1     79    243      -1490.    
    183      1     77    245      -2414.    
    184      1    199    329      -1617.    
    185      1    198    330      -2514.    
    186      1    140    328      -972.1    
    187      1    143    327      -863.6    
    188      1    139    327      -1331.    

    188 WELLS

 REUSING NON-PARAMETER DRAINS FROM LAST STRESS PERIOD

   1061 DRAINS

 REUSING SURF FROM LAST STRESS PERIOD

 REUSING EVTR FROM LAST STRESS PERIOD

 REUSING EXDP FROM LAST STRESS PERIOD



                           RECHARGE
 READING ON UNIT   19 WITH FORMAT: (510E15.6)          

 SOLVING FOR HEAD 
                                                   Max.-Head-Change                        Max.-Flux-Residual
  Residual-Control   Outer-Iter.   Inner-Iter.     Column Row Layer    Max.-Head-Change    Column Row Layer    Max.-Flux-Residual            L2-New               L2-Old           Solver-Max-Delh
          0                 1           3           263   79     1       0.2740559719E+01     348  263    1       0.1085023219E+04      0.8758779909E+04      0.4754265409E+02      0.2740559719E+01
          0                 2           2           263   79     1      -0.2376352771E+00     348  263    1      -0.1082321578E+03      0.8814358226E+03      0.8758779909E+04     -0.2376352771E+00
          0                 3           2           458  452     1       0.2054430752E-01     348  263    1      -0.5409586928E+01      0.4406516529E+02      0.8814358226E+03      0.2054430752E-01

    ------------------------------------------------
       NWT REQUIRED            3 OUTER ITERATIONS 
       AND A TOTAL OF          7 INNER ITERATIONS.
    ------------------------------------------------

 NO OUTPUT CONTROL FOR STRESS PERIOD   51   TIME STEP    1

 WELLS WITH REDUCED PUMPING FOR STRESS PERIOD    51 TIME STEP     1
   LAY   ROW   COL         APPL.Q          ACT.Q        GW-HEAD       CELL-BOT
     1    77   213  -0.234339E+04  -0.120823E+04   0.154108E+03   0.148000E+03
     1    92    77  -0.234339E+04  -0.457172E+03  -0.861757E+02  -0.930000E+02
     1    94    77  -0.234339E+04  -0.600128E+03  -0.945143E+02  -0.102000E+03
     1    94    73  -0.234339E+04  -0.684767E+03  -0.667823E+02  -0.740000E+02


 SOLVING FOR HEAD 
                                                   Max.-Head-Change                        Max.-Flux-Residual
  Residual-Control   Outer-Iter.   Inner-Iter.     Column Row Layer    Max.-Head-Change    Column Row Layer    Max.-Flux-Residual            L2-New               L2-Old           Solver-Max-Delh
          0                 1           3           263   79     1       0.9889051013E+00     213   83    1      -0.8929603840E+03      0.7326654832E+04      0.4406516529E+02      0.9889051013E+00
          0                 2           2           263   79     1      -0.8524695367E-01     213   83    1       0.8927147831E+02      0.7326655030E+03      0.7326654832E+04     -0.8524695367E-01

    ------------------------------------------------
       NWT REQUIRED            2 OUTER ITERATIONS 
       AND A TOTAL OF          5 INNER ITERATIONS.
    ------------------------------------------------

 NO OUTPUT CONTROL FOR STRESS PERIOD   51   TIME STEP    2

 WELLS WITH REDUCED PUMPING FOR STRESS PERIOD    51 TIME STEP     2
   LAY   ROW   COL         APPL.Q          ACT.Q        GW-HEAD       CELL-BOT
     1    77   213  -0.234339E+04  -0.117425E+04   0.153992E+03   0.148000E+03
     1    92    77  -0.234339E+04  -0.455426E+03  -0.861905E+02  -0.930000E+02
     1    94    77  -0.234339E+04  -0.589937E+03  -0.945885E+02  -0.102000E+03
     1    94    73  -0.234339E+04  -0.672270E+03  -0.668606E+02  -0.740000E+02


 SOLVING FOR HEAD 
                                                   Max.-Head-Change                        Max.-Flux-Residual
  Residual-Control   Outer-Iter.   Inner-Iter.     Column Row Layer    Max.-Head-Change    Column Row Layer    Max.-Flux-Residual            L2-New               L2-Old           Solver-Max-Delh
          0                 1           3           213   83     1      -0.3607089865E+00     213   83    1      -0.8791051305E+03      0.7070126823E+04      0.3663148457E+02     -0.3607089865E+00
          0                 2           2           213   83     1       0.3114519701E-01     213   83    1       0.8788648232E+02      0.7067607662E+03      0.7070126823E+04      0.3114519701E-01

    ------------------------------------------------
       NWT REQUIRED            2 OUTER ITERATIONS 
       AND A TOTAL OF          5 INNER ITERATIONS.
    ------------------------------------------------

 NO OUTPUT CONTROL FOR STRESS PERIOD   51   TIME STEP    3

 WELLS WITH REDUCED PUMPING FOR STRESS PERIOD    51 TIME STEP     3
   LAY   ROW   COL         APPL.Q          ACT.Q        GW-HEAD       CELL-BOT
     1    77   213  -0.234339E+04  -0.114377E+04   0.153889E+03   0.148000E+03
     1    92    77  -0.234339E+04  -0.454529E+03  -0.861980E+02  -0.930000E+02
     1    94    77  -0.234339E+04  -0.580302E+03  -0.946591E+02  -0.102000E+03
     1    94    73  -0.234339E+04  -0.660550E+03  -0.669344E+02  -0.740000E+02


 SOLVING FOR HEAD 
                                                   Max.-Head-Change                        Max.-Flux-Residual
  Residual-Control   Outer-Iter.   Inner-Iter.     Column Row Layer    Max.-Head-Change    Column Row Layer    Max.-Flux-Residual            L2-New               L2-Old           Solver-Max-Delh
          0                 1           3           213   83     1      -0.3551952248E+00     213   83    1      -0.8655592552E+03      0.6925334293E+04      0.3533695187E+02     -0.3551952248E+00
          0                 2           2           213   83     1       0.3066915785E-01     213   83    1       0.8653241293E+02      0.6926929263E+03      0.6925334293E+04      0.3066915785E-01

    ------------------------------------------------
       NWT REQUIRED            2 OUTER ITERATIONS 
       AND A TOTAL OF          5 INNER ITERATIONS.
    ------------------------------------------------

 NO OUTPUT CONTROL FOR STRESS PERIOD   51   TIME STEP    4

 WELLS WITH REDUCED PUMPING FOR STRESS PERIOD    51 TIME STEP     4
   LAY   ROW   COL         APPL.Q          ACT.Q        GW-HEAD       CELL-BOT
     1    77   213  -0.234339E+04  -0.111644E+04   0.153795E+03   0.148000E+03
     1    92    77  -0.234339E+04  -0.454072E+03  -0.862019E+02  -0.930000E+02
     1    94    77  -0.234339E+04  -0.571188E+03  -0.947261E+02  -0.102000E+03
     1    94    73  -0.234339E+04  -0.649554E+03  -0.670039E+02  -0.740000E+02


 SOLVING FOR HEAD 
                                                   Max.-Head-Change                        Max.-Flux-Residual
  Residual-Control   Outer-Iter.   Inner-Iter.     Column Row Layer    Max.-Head-Change    Column Row Layer    Max.-Flux-Residual            L2-New               L2-Old           Solver-Max-Delh
          0                 1           3           213   83     1      -0.3498037114E+00     213   83    1      -0.8523149802E+03      0.6816702729E+04      0.3463383116E+02     -0.3498037114E+00
          0                 2           2           213   83     1       0.3020367331E-01     213   83    1       0.8520849250E+02      0.6817418645E+03      0.6816702729E+04      0.3020367331E-01

    ------------------------------------------------
       NWT REQUIRED            2 OUTER ITERATIONS 
       AND A TOTAL OF          5 INNER ITERATIONS.
    ------------------------------------------------

 NO OUTPUT CONTROL FOR STRESS PERIOD   51   TIME STEP    5

 WELLS WITH REDUCED PUMPING FOR STRESS PERIOD    51 TIME STEP     5
   LAY   ROW   COL         APPL.Q          ACT.Q        GW-HEAD       CELL-BOT
     1    77   213  -0.234339E+04  -0.109193E+04   0.153712E+03   0.148000E+03
     1    92    77  -0.234339E+04  -0.453843E+03  -0.862039E+02  -0.930000E+02
     1    94    77  -0.234339E+04  -0.562563E+03  -0.947898E+02  -0.102000E+03
     1    94    73  -0.234339E+04  -0.639233E+03  -0.670695E+02  -0.740000E+02


 SOLVING FOR HEAD 
                                                   Max.-Head-Change                        Max.-Flux-Residual
  Residual-Control   Outer-Iter.   Inner-Iter.     Column Row Layer    Max.-Head-Change    Column Row Layer    Max.-Flux-Residual            L2-New               L2-Old           Solver-Max-Delh
          0                 1           3           213   83     1      -0.3445313040E+00     213   83    1      -0.8393646254E+03      0.6724295245E+04      0.3408666579E+02     -0.3445313040E+00
          0                 2           2           213   83     1       0.2974847127E-01     213   83    1       0.8391395330E+02      0.6723316713E+03      0.6724295245E+04      0.2974847127E-01

    ------------------------------------------------
       NWT REQUIRED            2 OUTER ITERATIONS 
       AND A TOTAL OF          5 INNER ITERATIONS.
    ------------------------------------------------

 NO OUTPUT CONTROL FOR STRESS PERIOD   51   TIME STEP    6

 WELLS WITH REDUCED PUMPING FOR STRESS PERIOD    51 TIME STEP     6
   LAY   ROW   COL         APPL.Q          ACT.Q        GW-HEAD       CELL-BOT
     1    77   213  -0.234339E+04  -0.106994E+04   0.153637E+03   0.148000E+03
     1    92    77  -0.234339E+04  -0.453731E+03  -0.862048E+02  -0.930000E+02
     1    94    77  -0.234339E+04  -0.554399E+03  -0.948505E+02  -0.102000E+03
     1    94    73  -0.234339E+04  -0.629541E+03  -0.671313E+02  -0.740000E+02


 SOLVING FOR HEAD 
                                                   Max.-Head-Change                        Max.-Flux-Residual
  Residual-Control   Outer-Iter.   Inner-Iter.     Column Row Layer    Max.-Head-Change    Column Row Layer    Max.-Flux-Residual            L2-New               L2-Old           Solver-Max-Delh
          0                 1           3           213   83     1      -0.3393750098E+00     213   83    1      -0.8267007704E+03      0.6640478126E+04      0.3361596840E+02     -0.3393750098E+00
          0                 2           2           213   83     1       0.2930329579E-01     213   83    1       0.8264805340E+02      0.6638742918E+03      0.6640478126E+04      0.2930329579E-01

    ------------------------------------------------
       NWT REQUIRED            2 OUTER ITERATIONS 
       AND A TOTAL OF          5 INNER ITERATIONS.
    ------------------------------------------------

 NO OUTPUT CONTROL FOR STRESS PERIOD   51   TIME STEP    7

 WELLS WITH REDUCED PUMPING FOR STRESS PERIOD    51 TIME STEP     7
   LAY   ROW   COL         APPL.Q          ACT.Q        GW-HEAD       CELL-BOT
     1    77   213  -0.234339E+04  -0.105022E+04   0.153569E+03   0.148000E+03
     1    92    77  -0.234339E+04  -0.453680E+03  -0.862052E+02  -0.930000E+02
     1    94    77  -0.234339E+04  -0.546667E+03  -0.949081E+02  -0.102000E+03
     1    94    73  -0.234339E+04  -0.620436E+03  -0.671896E+02  -0.740000E+02


 SOLVING FOR HEAD 
                                                   Max.-Head-Change                        Max.-Flux-Residual
  Residual-Control   Outer-Iter.   Inner-Iter.     Column Row Layer    Max.-Head-Change    Column Row Layer    Max.-Flux-Residual            L2-New               L2-Old           Solver-Max-Delh
          0                 1           3           213   83     1      -0.3343318450E+00     213   83    1      -0.8143159789E+03      0.6564685482E+04      0.3319316015E+02     -0.3343318450E+00
          0                 2           2           213   83     1       0.2886788668E-01     213   83    1       0.8141004918E+02      0.6563996837E+03      0.6564685482E+04      0.2886788668E-01

    ------------------------------------------------
       NWT REQUIRED            2 OUTER ITERATIONS 
       AND A TOTAL OF          5 INNER ITERATIONS.
    ------------------------------------------------

 NO OUTPUT CONTROL FOR STRESS PERIOD   51   TIME STEP    8

 WELLS WITH REDUCED PUMPING FOR STRESS PERIOD    51 TIME STEP     8
   LAY   ROW   COL         APPL.Q          ACT.Q        GW-HEAD       CELL-BOT
     1    77   213  -0.234339E+04  -0.103251E+04   0.153509E+03   0.148000E+03
     1    92    77  -0.234339E+04  -0.453659E+03  -0.862054E+02  -0.930000E+02
     1    94    77  -0.234339E+04  -0.539342E+03  -0.949630E+02  -0.102000E+03
     1    94    73  -0.234339E+04  -0.611879E+03  -0.672447E+02  -0.740000E+02


 SOLVING FOR HEAD 
                                                   Max.-Head-Change                        Max.-Flux-Residual
  Residual-Control   Outer-Iter.   Inner-Iter.     Column Row Layer    Max.-Head-Change    Column Row Layer    Max.-Flux-Residual            L2-New               L2-Old           Solver-Max-Delh
          0                 1           3           213   83     1      -0.3293990003E+00     213   83    1      -0.8022032168E+03      0.6494410732E+04      0.3281945548E+02     -0.3293990003E+00
          0                 2           2           213   83     1       0.2844200216E-01     213   83    1       0.8019923721E+02      0.6492996882E+03      0.6494410732E+04      0.2844200216E-01

    ------------------------------------------------
       NWT REQUIRED            2 OUTER ITERATIONS 
       AND A TOTAL OF          5 INNER ITERATIONS.
    ------------------------------------------------

 NO OUTPUT CONTROL FOR STRESS PERIOD   51   TIME STEP    9

 WELLS WITH REDUCED PUMPING FOR STRESS PERIOD    51 TIME STEP     9
   LAY   ROW   COL         APPL.Q          ACT.Q        GW-HEAD       CELL-BOT
     1    77   213  -0.234339E+04  -0.101661E+04   0.153454E+03   0.148000E+03
     1    92    77  -0.234339E+04  -0.453653E+03  -0.862055E+02  -0.930000E+02
     1    94    77  -0.234339E+04  -0.532399E+03  -0.950152E+02  -0.102000E+03
     1    94    73  -0.234339E+04  -0.603833E+03  -0.672966E+02  -0.740000E+02


 SOLVING FOR HEAD 
                                                   Max.-Head-Change                        Max.-Flux-Residual
  Residual-Control   Outer-Iter.   Inner-Iter.     Column Row Layer    Max.-Head-Change    Column Row Layer    Max.-Flux-Residual            L2-New               L2-Old           Solver-Max-Delh
          0                 1           3           213   83     1      -0.3245737319E+00     213   83    1      -0.7903556179E+03      0.6428618822E+04      0.3246454226E+02     -0.3245737319E+00
          0                 2           2           213   83     1       0.2802540525E-01     213   83    1       0.7901493088E+02      0.6427815072E+03      0.6428618822E+04      0.2802540525E-01

    ------------------------------------------------
       NWT REQUIRED            2 OUTER ITERATIONS 
       AND A TOTAL OF          5 INNER ITERATIONS.
    ------------------------------------------------

 OUTPUT CONTROL FOR STRESS PERIOD   51   TIME STEP   10
    SAVE HEAD FOR ALL LAYERS

 WELLS WITH REDUCED PUMPING FOR STRESS PERIOD    51 TIME STEP    10
   LAY   ROW   COL         APPL.Q          ACT.Q        GW-HEAD       CELL-BOT
     1    77   213  -0.234339E+04  -0.100231E+04   0.153405E+03   0.148000E+03
     1    92    77  -0.234339E+04  -0.453654E+03  -0.862055E+02  -0.930000E+02
     1    94    77  -0.234339E+04  -0.525817E+03  -0.950649E+02  -0.102000E+03
     1    94    73  -0.234339E+04  -0.596266E+03  -0.673457E+02  -0.740000E+02


 HEAD WILL BE SAVED ON UNIT   51 AT END OF TIME STEP   10, STRESS PERIOD   51
1
  VOLUMETRIC BUDGET FOR ENTIRE MODEL AT END OF TIME STEP   10, STRESS PERIOD  51
  ------------------------------------------------------------------------------

     CUMULATIVE VOLUMES      L**3       RATES FOR THIS TIME STEP      L**3/T
     ------------------                 ------------------------

           IN:                                      IN:
           ---                                      ---
             STORAGE =   524008160.0000               STORAGE =      334118.7188
       CONSTANT HEAD =    78381896.0000         CONSTANT HEAD =       52036.3945
               WELLS =           0.0000                 WELLS =           0.0000
              DRAINS =           0.0000                DRAINS =           0.0000
                  ET =           0.0000                    ET =           0.0000
            RECHARGE =   305975808.0000              RECHARGE =      204157.2500

            TOTAL IN =   908365888.0000              TOTAL IN =      590312.3750

          OUT:                                     OUT:
          ----                                     ----
             STORAGE =   183232752.0000               STORAGE =       13291.5762
       CONSTANT HEAD =           0.0000         CONSTANT HEAD =           0.0000
               WELLS =   474868416.0000                 WELLS =      404686.8750
              DRAINS =   175769936.0000                DRAINS =      124780.4922
                  ET =    73390160.0000                    ET =       45953.5742
            RECHARGE =       81860.0000              RECHARGE =           0.0000

           TOTAL OUT =   907343104.0000             TOTAL OUT =      588712.5000

            IN - OUT =     1022784.0000              IN - OUT =        1599.8750

 PERCENT DISCREPANCY =           0.11     PERCENT DISCREPANCY =           0.27






         TIME SUMMARY AT END OF TIME STEP   10 IN STRESS PERIOD   51
                    SECONDS     MINUTES      HOURS       DAYS        YEARS
                    -----------------------------------------------------------
   TIME STEP LENGTH 2.62656E+05  4377.6      72.960      3.0400     8.32307E-03
 STRESS PERIOD TIME 2.62656E+06  43776.      729.60      30.400     8.32307E-02
         TOTAL TIME 1.33955E+08 2.23258E+06  37210.      1550.4      4.2448    
1
1
                            STRESS PERIOD NO.   52, LENGTH =   30.40000    
                            -----------------------------------------------

                              NUMBER OF TIME STEPS =    10

                               MULTIPLIER FOR DELT =     1.000

                            INITIAL TIME STEP SIZE =   3.040000    

 WELL NO.  LAYER   ROW   COL   STRESS RATE         
 --------------------------------------------------
      1      1     69    225      -4406.    
      2      1     71    224       0.000    
      3      1     74    220       0.000    
      4      1     73    220       0.000    
      5      1     71    223       0.000    
      6      1     71    223       0.000    
      7      1     72    223       0.000    
      8      1     92    173       0.000    
      9      1     94    174       0.000    
     10      1     93    175       0.000    
     11      1    203    328       0.000    
     12      1    438    460      -0.000    
     13      1    436    461      -0.000    
     14      1    410    454      -0.000    
     15      1    433    460      -0.000    
     16      1    431    462      -0.000    
     17      1    417    459      -0.000    
     18      1    418    458      -0.000    
     19      1    414    455      -0.000    
     20      1    443    464      -0.000    
     21      1    379    425      -0.000    
     22      1    362    405      -0.000    
     23      1    361    405      -0.000    
     24      1    362    406      -0.000    
     25      1    363    408      -0.000    
     26      1    364    410      -0.000    
     27      1    369    418      -0.000    
     28      1    367    417      -0.000    
     29      1    365    415      -0.000    
     30      1    402    447      -0.000    
     31      1    400    446      -0.000    
     32      1    392    444      -0.000    
     33      1    391    441      -0.000    
     34      1    403    448      -0.000    
     35      1    405    447      -0.000    
     36      1    362    410      -0.000    
     37      1    362    411      -0.000    
     38      1    363    412      -0.000    
     39      1    375    421      -0.000    
     40      1    383    430      -0.000    
     41      1    397    445      -0.000    
     42      1    360    403      -0.000    
     43      1    350    401      -0.000    
     44      1    346    393      -49.88    
     45      1    333    387      -49.88    
     46      1    328    384      -49.88    
     47      1    326    383      -49.88    
     48      1    323    378      -49.88    
     49      1    321    378      -49.88    
     50      1    322    376      -49.88    
     51      1    316    374      -49.88    
     52      1    311    371      -49.88    
     53      1    307    369      -49.88    
     54      1    305    368      -49.88    
     55      1    303    368      -49.88    
     56      1    300    369      -49.88    
     57      1    293    364      -49.88    
     58      1    292    362      -49.88    
     59      1    278    350      -49.88    
     60      1    274    351      -49.88    
     61      1    273    350      -49.88    
     62      1    271    350      -49.88    
     63      1    267    348      -49.88    
     64      1    263    348      -49.88    
     65      1    263    348      -49.88    
     66      1    248    347      -49.88    
     67      1    243    342      -49.88    
     68      1    242    339      -49.88    
     69      1    238    341      -49.88    
     70      1    233    340      -49.88    
     71      1    232    340      -49.88    
     72      1    229    341      -49.88    
     73      1    227    341      -49.88    
     74      1    219    342      -49.88    
     75      1    219    336      -49.88    
     76      1    199    329      -49.88    
     77      1    191    332      -0.000    
     78      1    190    332      -0.000    
     79      1    130    310      -0.000    
     80      1    123    305      -0.000    
     81      1    104    289      -0.000    
     82      1     96    287      -510.6    
     83      1     95    284      -510.6    
     84      1     95    280      -510.6    
     85      1     93    276      -510.6    
     86      1     94    275      -510.6    
     87      1     90    277      -510.6    
     88      1     90    273      -510.6    
     89      1     86    271      -510.6    
     90      1     85    270      -510.6    
     91      1     84    265      -510.6    
     92      1     85    265      -510.6    
     93      1     84    264      -510.6    
     94      1     79    263      -510.6    
     95      1     79    263      -510.6    
     96      1     76    262      -510.6    
     97      1     73    257      -510.6    
     98      1     74    255      -510.6    
     99      1     71    255      -510.6    
    100      1     66    253      -510.6    
    101      1     68    252      -510.6    
    102      1     69    250      -510.6    
    103      1     65    248      -510.6    
    104      1     68    248      -510.6    
    105      1     69    247      -510.6    
    106      1     73    247      -510.6    
    107      1     64    246      -510.6    
    108      1     69    245      -510.6    
    109      1     72    245      -510.6    
    110      1     69    241      -510.6    
    111      1     73    238      -510.6    
    112      1     70    238      -510.6    
    113      1     76    263      -510.6    
    114      1     66    232      -620.9    
    115      1     69    229      -620.9    
    116      1     71    228      -620.9    
    117      1     69    227      -620.9    
    118      1     72    219      -620.9    
    119      1     72    218      -620.9    
    120      1     72    218      -620.9    
    121      1     73    217      -620.9    
    122      1     77    219      -620.9    
    123      1     78    219      -620.9    
    124      1     83    213      -620.9    
    125      1     77    213      -620.9    
    126      1     81    211      -620.9    
    127      1     81    210      -620.9    
    128      1     81    210      -620.9    
    129      1     82    208      -620.9    
    130      1     80    205      -620.9    
    131      1     86    202      -620.9    
    132      1     84    200      -620.9    
    133      1     89    200      -620.9    
    134      1     89    199      -620.9    
    135      1     88    199      -620.9    
    136      1     86    199      -620.9    
    137      1     85    199      -620.9    
    138      1     82    197      -620.9    
    139      1     86    197      -620.9    
    140      1     88    198      -620.9    
    141      1     90    192      -620.9    
    142      1     89    191      -620.9    
    143      1     84    192      -620.9    
    144      1     91    189      -620.9    
    145      1     92    185      -620.9    
    146      1     87    183      -620.9    
    147      1     92    182      -620.9    
    148      1     90    182      -620.9    
    149      1     88    179      -620.9    
    150      1     89    176      -620.9    
    151      1     92    172      -620.9    
    152      1     93    164      -620.9    
    153      1     94    162      -620.9    
    154      1    103    156      -620.9    
    155      1    103    156      -620.9    
    156      1     96    154      -620.9    
    157      1     97    153      -620.9    
    158      1    122    139      -620.9    
    159      1     92     77      -620.9    
    160      1     94     77      -620.9    
    161      1     94     73      -620.9    
    162      1     97    152      -620.9    
    163      1    118    337      -666.7    
    164      1    133    319      -2678.    
    165      1    131    320      -3951.    
    166      1    133    321      -2956.    
    167      1    161    329      -2141.    
    168      1    178    330      -551.0    
    169      1    163    330      -1122.    
    170      1    131    320      -2473.    
    171      1    129    315      -3937.    
    172      1    162    329      -1959.    
    173      1    131    311      -826.1    
    174      1    221    340      -1994.    
    175      1    220    340      -1034.    
    176      1    221    340      -667.7    
    177      1    137    322      -2082.    
    178      1    137    321      -1407.    
    179      1    185    329      -2012.    
    180      1    183    329      -1473.    
    181      1    175    329      -585.3    
    182      1     79    243      -1490.    
    183      1     77    245      -2414.    
    184      1    199    329      -1617.    
    185      1    198    330      -2514.    
    186      1    140    328      -972.1    
    187      1    143    327      -863.6    
    188      1    139    327      -1331.    

    188 WELLS

 REUSING NON-PARAMETER DRAINS FROM LAST STRESS PERIOD

   1061 DRAINS

 REUSING SURF FROM LAST STRESS PERIOD

 REUSING EVTR FROM LAST STRESS PERIOD

 REUSING EXDP FROM LAST STRESS PERIOD



                           RECHARGE
 READING ON UNIT   19 WITH FORMAT: (510E15.6)          

 SOLVING FOR HEAD 
                                                   Max.-Head-Change                        Max.-Flux-Residual
  Residual-Control   Outer-Iter.   Inner-Iter.     Column Row Layer    Max.-Head-Change    Column Row Layer    Max.-Flux-Residual            L2-New               L2-Old           Solver-Max-Delh
          0                 1           3           263   79     1       0.1998777636E+02     263   79    1       0.6513599435E+04      0.2867565364E+05      0.3213860888E+02      0.1998777636E+02
          0                 2           2           263   79     1      -0.1925846551E+01     263   79    1      -0.7527594864E+03      0.2990806326E+04      0.2867565364E+05     -0.1925846551E+01
          0                 3           2           263   79     1      -0.9859683266E-01     263   79    1      -0.3849232494E+02      0.1520922852E+03      0.2990806326E+04     -0.9859683266E-01

    ------------------------------------------------
       NWT REQUIRED            3 OUTER ITERATIONS 
       AND A TOTAL OF          7 INNER ITERATIONS.
    ------------------------------------------------

 NO OUTPUT CONTROL FOR STRESS PERIOD   52   TIME STEP    1

 WELLS WITH REDUCED PUMPING FOR STRESS PERIOD    52 TIME STEP     1
   LAY   ROW   COL         APPL.Q          ACT.Q        GW-HEAD       CELL-BOT
     1    77   213  -0.620891E+03  -0.282139E+03   0.153619E+03   0.148000E+03
     1    92    77  -0.620891E+03  -0.181518E+03  -0.843775E+02  -0.930000E+02
     1    94    77  -0.620891E+03  -0.142377E+03  -0.949778E+02  -0.102000E+03
     1    94    73  -0.620891E+03  -0.162359E+03  -0.672388E+02  -0.740000E+02


 SOLVING FOR HEAD 
                                                   Max.-Head-Change                        Max.-Flux-Residual
  Residual-Control   Outer-Iter.   Inner-Iter.     Column Row Layer    Max.-Head-Change    Column Row Layer    Max.-Flux-Residual            L2-New               L2-Old           Solver-Max-Delh
          0                 1           3           263   79     1       0.8236908297E+01     263   79    1       0.2574625485E+04      0.1250547475E+05      0.1520922852E+03      0.8236908297E+01
          0                 2           2           263   79     1      -0.7617882980E+00     263   79    1      -0.2828170254E+03      0.1263255544E+04      0.1250547475E+05     -0.7617882980E+00
          0                 3           2           263   79     1      -0.3865248784E-01     263   79    1      -0.1435052749E+02      0.6382963548E+02      0.1263255544E+04     -0.3865248784E-01

    ------------------------------------------------
       NWT REQUIRED            3 OUTER ITERATIONS 
       AND A TOTAL OF          7 INNER ITERATIONS.
    ------------------------------------------------

 NO OUTPUT CONTROL FOR STRESS PERIOD   52   TIME STEP    2

 WELLS WITH REDUCED PUMPING FOR STRESS PERIOD    52 TIME STEP     2
   LAY   ROW   COL         APPL.Q          ACT.Q        GW-HEAD       CELL-BOT
     1    77   213  -0.620891E+03  -0.298195E+03   0.153826E+03   0.148000E+03
     1    92    77  -0.620891E+03  -0.232927E+03  -0.829736E+02  -0.930000E+02
     1    94    77  -0.620891E+03  -0.145413E+03  -0.948920E+02  -0.102000E+03
     1    94    73  -0.620891E+03  -0.166695E+03  -0.671338E+02  -0.740000E+02


 SOLVING FOR HEAD 
                                                   Max.-Head-Change                        Max.-Flux-Residual
  Residual-Control   Outer-Iter.   Inner-Iter.     Column Row Layer    Max.-Head-Change    Column Row Layer    Max.-Flux-Residual            L2-New               L2-Old           Solver-Max-Delh
          0                 1           3           263   79     1       0.3666072888E+01     156  103    1       0.2083971710E+04      0.9293855140E+04      0.6382963548E+02      0.3666072888E+01
          0                 2           2           263   79     1      -0.3360507348E+00     156  103    1      -0.2085316174E+03      0.9385744534E+03      0.9293855140E+04     -0.3360507348E+00
          0                 3           2           263   79     1      -0.1694490863E-01     156  103    1      -0.1042757883E+02      0.4695324374E+02      0.9385744534E+03     -0.1694490863E-01

    ------------------------------------------------
       NWT REQUIRED            3 OUTER ITERATIONS 
       AND A TOTAL OF          7 INNER ITERATIONS.
    ------------------------------------------------

 NO OUTPUT CONTROL FOR STRESS PERIOD   52   TIME STEP    3

 WELLS WITH REDUCED PUMPING FOR STRESS PERIOD    52 TIME STEP     3
   LAY   ROW   COL         APPL.Q          ACT.Q        GW-HEAD       CELL-BOT
     1    77   213  -0.620891E+03  -0.313710E+03   0.154026E+03   0.148000E+03
     1    92    77  -0.620891E+03  -0.273609E+03  -0.819037E+02  -0.930000E+02
     1    94    77  -0.620891E+03  -0.148424E+03  -0.948074E+02  -0.102000E+03
     1    94    73  -0.620891E+03  -0.170988E+03  -0.670306E+02  -0.740000E+02


 SOLVING FOR HEAD 
                                                   Max.-Head-Change                        Max.-Flux-Residual
  Residual-Control   Outer-Iter.   Inner-Iter.     Column Row Layer    Max.-Head-Change    Column Row Layer    Max.-Flux-Residual            L2-New               L2-Old           Solver-Max-Delh
          0                 1           3           263   79     1       0.1791711277E+01     156  103    1       0.1705924506E+04      0.7726314603E+04      0.4695324374E+02      0.1791711277E+01
          0                 2           2           263   79     1      -0.1570852865E+00     156  103    1      -0.1707068922E+03      0.7741036763E+03      0.7726314603E+04     -0.1570852865E+00
          0                 3           2           457  453     1       0.1475185802E-01     156  103    1      -0.8536194275E+01      0.3870800492E+02      0.7741036763E+03      0.1475185802E-01

    ------------------------------------------------
       NWT REQUIRED            3 OUTER ITERATIONS 
       AND A TOTAL OF          7 INNER ITERATIONS.
    ------------------------------------------------

 NO OUTPUT CONTROL FOR STRESS PERIOD   52   TIME STEP    4

 WELLS WITH REDUCED PUMPING FOR STRESS PERIOD    52 TIME STEP     4
   LAY   ROW   COL         APPL.Q          ACT.Q        GW-HEAD       CELL-BOT
     1    77   213  -0.620891E+03  -0.328669E+03   0.154218E+03   0.148000E+03
     1    92    77  -0.620891E+03  -0.304943E+03  -0.810907E+02  -0.930000E+02
     1    94    77  -0.620891E+03  -0.151408E+03  -0.947241E+02  -0.102000E+03
     1    94    73  -0.620891E+03  -0.175235E+03  -0.669291E+02  -0.740000E+02


 SOLVING FOR HEAD 
                                                   Max.-Head-Change                        Max.-Flux-Residual
  Residual-Control   Outer-Iter.   Inner-Iter.     Column Row Layer    Max.-Head-Change    Column Row Layer    Max.-Flux-Residual            L2-New               L2-Old           Solver-Max-Delh
          0                 1           3           264   78     1       0.1128720902E+01     383  326    1       0.1535086275E+04      0.6756447421E+04      0.3870800492E+02      0.1128720902E+01
          0                 2           2           263   78     1      -0.1010097207E+00     383  326    1      -0.1535978231E+03      0.6771144976E+03      0.6756447421E+04     -0.1010097207E+00
          0                 3           2           457  453     1       0.1475464781E-01     383  326    1      -0.7680552856E+01      0.3411600904E+02      0.6771144976E+03      0.1475464781E-01

    ------------------------------------------------
       NWT REQUIRED            3 OUTER ITERATIONS 
       AND A TOTAL OF          7 INNER ITERATIONS.
    ------------------------------------------------

 NO OUTPUT CONTROL FOR STRESS PERIOD   52   TIME STEP    5

 WELLS WITH REDUCED PUMPING FOR STRESS PERIOD    52 TIME STEP     5
   LAY   ROW   COL         APPL.Q          ACT.Q        GW-HEAD       CELL-BOT
     1    77   213  -0.620891E+03  -0.343064E+03   0.154403E+03   0.148000E+03
     1    92    77  -0.620891E+03  -0.328785E+03  -0.804734E+02  -0.930000E+02
     1    94    77  -0.620891E+03  -0.154366E+03  -0.946421E+02  -0.102000E+03
     1    94    73  -0.620891E+03  -0.179437E+03  -0.668294E+02  -0.740000E+02


 SOLVING FOR HEAD 
                                                   Max.-Head-Change                        Max.-Flux-Residual
  Residual-Control   Outer-Iter.   Inner-Iter.     Column Row Layer    Max.-Head-Change    Column Row Layer    Max.-Flux-Residual            L2-New               L2-Old           Solver-Max-Delh
          0                 1           3           264   78     1       0.9454342832E+00     378  321    1       0.1396066884E+04      0.6080412210E+04      0.3411600904E+02      0.9454342832E+00
          0                 2           2           264   78     1      -0.8292258234E-01     378  321    1      -0.1396847795E+03      0.6105542775E+03      0.6080412210E+04     -0.8292258234E-01

    ------------------------------------------------
       NWT REQUIRED            2 OUTER ITERATIONS 
       AND A TOTAL OF          5 INNER ITERATIONS.
    ------------------------------------------------

 NO OUTPUT CONTROL FOR STRESS PERIOD   52   TIME STEP    6

 WELLS WITH REDUCED PUMPING FOR STRESS PERIOD    52 TIME STEP     6
   LAY   ROW   COL         APPL.Q          ACT.Q        GW-HEAD       CELL-BOT
     1    77   213  -0.620891E+03  -0.356957E+03   0.154583E+03   0.148000E+03
     1    92    77  -0.620891E+03  -0.346921E+03  -0.800024E+02  -0.930000E+02
     1    94    77  -0.620891E+03  -0.157310E+03  -0.945609E+02  -0.102000E+03
     1    94    73  -0.620891E+03  -0.183610E+03  -0.667310E+02  -0.740000E+02


 SOLVING FOR HEAD 
                                                   Max.-Head-Change                        Max.-Flux-Residual
  Residual-Control   Outer-Iter.   Inner-Iter.     Column Row Layer    Max.-Head-Change    Column Row Layer    Max.-Flux-Residual            L2-New               L2-Old           Solver-Max-Delh
          0                 1           3           264   78     1       0.7781246312E+00     378  321    1       0.1273428497E+04      0.5574061119E+04      0.3053000096E+02      0.7781246312E+00
          0                 2           2            53   88     1      -0.7487169035E-01     378  321    1      -0.1274175798E+03      0.5592857796E+03      0.5574061119E+04     -0.7487169035E-01

    ------------------------------------------------
       NWT REQUIRED            2 OUTER ITERATIONS 
       AND A TOTAL OF          5 INNER ITERATIONS.
    ------------------------------------------------

 NO OUTPUT CONTROL FOR STRESS PERIOD   52   TIME STEP    7

 WELLS WITH REDUCED PUMPING FOR STRESS PERIOD    52 TIME STEP     7
   LAY   ROW   COL         APPL.Q          ACT.Q        GW-HEAD       CELL-BOT
     1    77   213  -0.620891E+03  -0.370279E+03   0.154757E+03   0.148000E+03
     1    92    77  -0.620891E+03  -0.360607E+03  -0.796450E+02  -0.930000E+02
     1    94    77  -0.620891E+03  -0.160226E+03  -0.944809E+02  -0.102000E+03
     1    94    73  -0.620891E+03  -0.187734E+03  -0.666344E+02  -0.740000E+02


 SOLVING FOR HEAD 
                                                   Max.-Head-Change                        Max.-Flux-Residual
  Residual-Control   Outer-Iter.   Inner-Iter.     Column Row Layer    Max.-Head-Change    Column Row Layer    Max.-Flux-Residual            L2-New               L2-Old           Solver-Max-Delh
          0                 1           3           264   78     1       0.6392820369E+00     378  321    1       0.1164716052E+04      0.5180660749E+04      0.2796596756E+02      0.6392820369E+00
          0                 2           2           264   78     1      -0.5582930271E-01     378  321    1      -0.1165417056E+03      0.5181724127E+03      0.5180660749E+04     -0.5582930271E-01

    ------------------------------------------------
       NWT REQUIRED            2 OUTER ITERATIONS 
       AND A TOTAL OF          5 INNER ITERATIONS.
    ------------------------------------------------

 NO OUTPUT CONTROL FOR STRESS PERIOD   52   TIME STEP    8

 WELLS WITH REDUCED PUMPING FOR STRESS PERIOD    52 TIME STEP     8
   LAY   ROW   COL         APPL.Q          ACT.Q        GW-HEAD       CELL-BOT
     1    77   213  -0.620891E+03  -0.383037E+03   0.154924E+03   0.148000E+03
     1    92    77  -0.620891E+03  -0.370933E+03  -0.793739E+02  -0.930000E+02
     1    94    77  -0.620891E+03  -0.163113E+03  -0.944021E+02  -0.102000E+03
     1    94    73  -0.620891E+03  -0.191807E+03  -0.665394E+02  -0.740000E+02


 SOLVING FOR HEAD 
                                                   Max.-Head-Change                        Max.-Flux-Residual
  Residual-Control   Outer-Iter.   Inner-Iter.     Column Row Layer    Max.-Head-Change    Column Row Layer    Max.-Flux-Residual            L2-New               L2-Old           Solver-Max-Delh
          0                 1           3           264   78     1       0.5286082075E+00     378  321    1       0.1068051523E+04      0.4865464922E+04      0.2590979551E+02      0.5286082075E+00
          0                 2           2           264   78     1      -0.4606549678E-01     378  321    1      -0.1068700485E+03      0.4868127578E+03      0.4865464922E+04     -0.4606549678E-01

    ------------------------------------------------
       NWT REQUIRED            2 OUTER ITERATIONS 
       AND A TOTAL OF          5 INNER ITERATIONS.
    ------------------------------------------------

 NO OUTPUT CONTROL FOR STRESS PERIOD   52   TIME STEP    9

 WELLS WITH REDUCED PUMPING FOR STRESS PERIOD    52 TIME STEP     9
   LAY   ROW   COL         APPL.Q          ACT.Q        GW-HEAD       CELL-BOT
     1    77   213  -0.620891E+03  -0.395241E+03   0.155086E+03   0.148000E+03
     1    92    77  -0.620891E+03  -0.378724E+03  -0.791683E+02  -0.930000E+02
     1    94    77  -0.620891E+03  -0.165970E+03  -0.943245E+02  -0.102000E+03
     1    94    73  -0.620891E+03  -0.195828E+03  -0.664462E+02  -0.740000E+02


 SOLVING FOR HEAD 
                                                   Max.-Head-Change                        Max.-Flux-Residual
  Residual-Control   Outer-Iter.   Inner-Iter.     Column Row Layer    Max.-Head-Change    Column Row Layer    Max.-Flux-Residual            L2-New               L2-Old           Solver-Max-Delh
          0                 1           3           343  217     1       0.4560106857E+00     378  321    1       0.9818586730E+03      0.4606786229E+04      0.4868127578E+03      0.4560106857E+00
          0                 2           2           343  217     1      -0.3956882775E-01     378  321    1      -0.9824540939E+02      0.4606590637E+03      0.4606786229E+04     -0.3956882775E-01

    ------------------------------------------------
       NWT REQUIRED            2 OUTER ITERATIONS 
       AND A TOTAL OF          5 INNER ITERATIONS.
    ------------------------------------------------

 OUTPUT CONTROL FOR STRESS PERIOD   52   TIME STEP   10
    SAVE HEAD FOR ALL LAYERS

 WELLS WITH REDUCED PUMPING FOR STRESS PERIOD    52 TIME STEP    10
   LAY   ROW   COL         APPL.Q          ACT.Q        GW-HEAD       CELL-BOT
     1    77   213  -0.620891E+03  -0.406902E+03   0.155242E+03   0.148000E+03
     1    92    77  -0.620891E+03  -0.384599E+03  -0.790125E+02  -0.930000E+02
     1    94    77  -0.620891E+03  -0.168797E+03  -0.942482E+02  -0.102000E+03
     1    94    73  -0.620891E+03  -0.199797E+03  -0.663546E+02  -0.740000E+02


 HEAD WILL BE SAVED ON UNIT   51 AT END OF TIME STEP   10, STRESS PERIOD   52
1
  VOLUMETRIC BUDGET FOR ENTIRE MODEL AT END OF TIME STEP   10, STRESS PERIOD  52
  ------------------------------------------------------------------------------

     CUMULATIVE VOLUMES      L**3       RATES FOR THIS TIME STEP      L**3/T
     ------------------                 ------------------------

           IN:                                      IN:
           ---                                      ---
             STORAGE =   529251680.0000               STORAGE =      144452.8438
       CONSTANT HEAD =    79963960.0000         CONSTANT HEAD =       52046.0195
               WELLS =           0.0000                 WELLS =           0.0000
              DRAINS =           0.0000                DRAINS =           0.0000
                  ET =           0.0000                    ET =           0.0000
            RECHARGE =   310754048.0000              RECHARGE =      157174.5781

            TOTAL IN =   919969664.0000              TOTAL IN =      353673.4375

          OUT:                                     OUT:
          ----                                     ----
             STORAGE =   186557920.0000               STORAGE =       77402.1719
       CONSTANT HEAD =           0.0000         CONSTANT HEAD =           0.0000
               WELLS =   477789600.0000                 WELLS =       96249.1016
              DRAINS =   179689920.0000                DRAINS =      131640.7188
                  ET =    74822456.0000                    ET =       48051.0977
            RECHARGE =       81860.0000              RECHARGE =           0.0000

           TOTAL OUT =   918941760.0000             TOTAL OUT =      353343.0938

            IN - OUT =     1027904.0000              IN - OUT =         330.3438

 PERCENT DISCREPANCY =           0.11     PERCENT DISCREPANCY =           0.09






         TIME SUMMARY AT END OF TIME STEP   10 IN STRESS PERIOD   52
                    SECONDS     MINUTES      HOURS       DAYS        YEARS
                    -----------------------------------------------------------
   TIME STEP LENGTH 2.62656E+05  4377.6      72.960      3.0400     8.32307E-03
 STRESS PERIOD TIME 2.62656E+06  43776.      729.60      30.400     8.32307E-02
         TOTAL TIME 1.36581E+08 2.27636E+06  37939.      1580.8      4.3280    
1
1
                            STRESS PERIOD NO.   53, LENGTH =   30.40000    
                            -----------------------------------------------

                              NUMBER OF TIME STEPS =    10

                               MULTIPLIER FOR DELT =     1.000

                            INITIAL TIME STEP SIZE =   3.040000    

 WELL NO.  LAYER   ROW   COL   STRESS RATE         
 --------------------------------------------------
      1      1     69    225      -4493.    
      2      1     71    224       0.000    
      3      1     74    220       0.000    
      4      1     73    220       0.000    
      5      1     71    223       0.000    
      6      1     71    223       0.000    
      7      1     72    223       0.000    
      8      1     92    173       0.000    
      9      1     94    174       0.000    
     10      1     93    175       0.000    
     11      1    203    328       0.000    
     12      1    438    460      -550.5    
     13      1    436    461      -550.5    
     14      1    410    454      -550.5    
     15      1    433    460      -550.5    
     16      1    431    462      -550.5    
     17      1    417    459      -550.5    
     18      1    418    458      -550.5    
     19      1    414    455      -550.5    
     20      1    443    464      -550.5    
     21      1    379    425      -550.5    
     22      1    362    405      -550.5    
     23      1    361    405      -550.5    
     24      1    362    406      -550.5    
     25      1    363    408      -550.5    
     26      1    364    410      -550.5    
     27      1    369    418      -550.5    
     28      1    367    417      -550.5    
     29      1    365    415      -550.5    
     30      1    402    447      -550.5    
     31      1    400    446      -550.5    
     32      1    392    444      -550.5    
     33      1    391    441      -550.5    
     34      1    403    448      -550.5    
     35      1    405    447      -550.5    
     36      1    362    410      -550.5    
     37      1    362    411      -550.5    
     38      1    363    412      -550.5    
     39      1    375    421      -550.5    
     40      1    383    430      -550.5    
     41      1    397    445      -550.5    
     42      1    360    403      -550.5    
     43      1    350    401      -550.5    
     44      1    346    393      -581.6    
     45      1    333    387      -581.6    
     46      1    328    384      -581.6    
     47      1    326    383      -581.6    
     48      1    323    378      -581.6    
     49      1    321    378      -581.6    
     50      1    322    376      -581.6    
     51      1    316    374      -581.6    
     52      1    311    371      -581.6    
     53      1    307    369      -581.6    
     54      1    305    368      -581.6    
     55      1    303    368      -581.6    
     56      1    300    369      -581.6    
     57      1    293    364      -581.6    
     58      1    292    362      -581.6    
     59      1    278    350      -581.6    
     60      1    274    351      -581.6    
     61      1    273    350      -581.6    
     62      1    271    350      -581.6    
     63      1    267    348      -581.6    
     64      1    263    348      -581.6    
     65      1    263    348      -581.6    
     66      1    248    347      -581.6    
     67      1    243    342      -581.6    
     68      1    242    339      -581.6    
     69      1    238    341      -581.6    
     70      1    233    340      -581.6    
     71      1    232    340      -581.6    
     72      1    229    341      -581.6    
     73      1    227    341      -581.6    
     74      1    219    342      -581.6    
     75      1    219    336      -581.6    
     76      1    199    329      -581.6    
     77      1    191    332      -395.6    
     78      1    190    332      -395.6    
     79      1    130    310      -395.6    
     80      1    123    305      -395.6    
     81      1    104    289      -395.6    
     82      1     96    287      -1045.    
     83      1     95    284      -1045.    
     84      1     95    280      -1045.    
     85      1     93    276      -1045.    
     86      1     94    275      -1045.    
     87      1     90    277      -1045.    
     88      1     90    273      -1045.    
     89      1     86    271      -1045.    
     90      1     85    270      -1045.    
     91      1     84    265      -1045.    
     92      1     85    265      -1045.    
     93      1     84    264      -1045.    
     94      1     79    263      -1045.    
     95      1     79    263      -1045.    
     96      1     76    262      -1045.    
     97      1     73    257      -1045.    
     98      1     74    255      -1045.    
     99      1     71    255      -1045.    
    100      1     66    253      -1045.    
    101      1     68    252      -1045.    
    102      1     69    250      -1045.    
    103      1     65    248      -1045.    
    104      1     68    248      -1045.    
    105      1     69    247      -1045.    
    106      1     73    247      -1045.    
    107      1     64    246      -1045.    
    108      1     69    245      -1045.    
    109      1     72    245      -1045.    
    110      1     69    241      -1045.    
    111      1     73    238      -1045.    
    112      1     70    238      -1045.    
    113      1     76    263      -1045.    
    114      1     66    232      -728.1    
    115      1     69    229      -728.1    
    116      1     71    228      -728.1    
    117      1     69    227      -728.1    
    118      1     72    219      -728.1    
    119      1     72    218      -728.1    
    120      1     72    218      -728.1    
    121      1     73    217      -728.1    
    122      1     77    219      -728.1    
    123      1     78    219      -728.1    
    124      1     83    213      -728.1    
    125      1     77    213      -728.1    
    126      1     81    211      -728.1    
    127      1     81    210      -728.1    
    128      1     81    210      -728.1    
    129      1     82    208      -728.1    
    130      1     80    205      -728.1    
    131      1     86    202      -728.1    
    132      1     84    200      -728.1    
    133      1     89    200      -728.1    
    134      1     89    199      -728.1    
    135      1     88    199      -728.1    
    136      1     86    199      -728.1    
    137      1     85    199      -728.1    
    138      1     82    197      -728.1    
    139      1     86    197      -728.1    
    140      1     88    198      -728.1    
    141      1     90    192      -728.1    
    142      1     89    191      -728.1    
    143      1     84    192      -728.1    
    144      1     91    189      -728.1    
    145      1     92    185      -728.1    
    146      1     87    183      -728.1    
    147      1     92    182      -728.1    
    148      1     90    182      -728.1    
    149      1     88    179      -728.1    
    150      1     89    176      -728.1    
    151      1     92    172      -728.1    
    152      1     93    164      -728.1    
    153      1     94    162      -728.1    
    154      1    103    156      -728.1    
    155      1    103    156      -728.1    
    156      1     96    154      -728.1    
    157      1     97    153      -728.1    
    158      1    122    139      -728.1    
    159      1     92     77      -728.1    
    160      1     94     77      -728.1    
    161      1     94     73      -728.1    
    162      1     97    152      -728.1    
    163      1    118    337      -666.7    
    164      1    133    319      -2678.    
    165      1    131    320      -3951.    
    166      1    133    321      -2956.    
    167      1    161    329      -2141.    
    168      1    178    330      -551.0    
    169      1    163    330      -1122.    
    170      1    131    320      -2473.    
    171      1    129    315      -3937.    
    172      1    162    329      -1959.    
    173      1    131    311      -826.1    
    174      1    221    340      -1994.    
    175      1    220    340      -1034.    
    176      1    221    340      -667.7    
    177      1    137    322      -2082.    
    178      1    137    321      -1407.    
    179      1    185    329      -2012.    
    180      1    183    329      -1473.    
    181      1    175    329      -585.3    
    182      1     79    243      -1490.    
    183      1     77    245      -2414.    
    184      1    199    329      -1617.    
    185      1    198    330      -2514.    
    186      1    140    328      -972.1    
    187      1    143    327      -863.6    
    188      1    139    327      -1331.    

    188 WELLS

 REUSING NON-PARAMETER DRAINS FROM LAST STRESS PERIOD

   1061 DRAINS

 REUSING SURF FROM LAST STRESS PERIOD

 REUSING EVTR FROM LAST STRESS PERIOD

 REUSING EXDP FROM LAST STRESS PERIOD



                           RECHARGE
 READING ON UNIT   19 WITH FORMAT: (510E15.6)          

 SOLVING FOR HEAD 
                                                   Max.-Head-Change                        Max.-Flux-Residual
  Residual-Control   Outer-Iter.   Inner-Iter.     Column Row Layer    Max.-Head-Change    Column Row Layer    Max.-Flux-Residual            L2-New               L2-Old           Solver-Max-Delh
          0                 1           3           263   79     1      -0.2939575744E+01     263   79    1      -0.1037818662E+04      0.5771791302E+04      0.4606590637E+03     -0.2939575744E+01
          0                 2           2           263   79     1       0.2487460345E+00     263   79    1       0.1024662694E+03      0.5784658404E+03      0.5771791302E+04      0.2487460345E+00
          0                 3           2           457  453     1       0.1490787811E-01     263   79    1       0.5115174073E+01      0.2892305636E+02      0.5784658404E+03      0.1490787811E-01

    ------------------------------------------------
       NWT REQUIRED            3 OUTER ITERATIONS 
       AND A TOTAL OF          7 INNER ITERATIONS.
    ------------------------------------------------

 NO OUTPUT CONTROL FOR STRESS PERIOD   53   TIME STEP    1

 WELLS WITH REDUCED PUMPING FOR STRESS PERIOD    53 TIME STEP     1
   LAY   ROW   COL         APPL.Q          ACT.Q        GW-HEAD       CELL-BOT
     1    77   213  -0.728135E+03  -0.487948E+03   0.155366E+03   0.148000E+03
     1    92    77  -0.728135E+03  -0.440107E+03  -0.792592E+02  -0.930000E+02
     1    94    77  -0.728135E+03  -0.200758E+03  -0.941838E+02  -0.102000E+03
     1    94    73  -0.728135E+03  -0.238235E+03  -0.662776E+02  -0.740000E+02


 SOLVING FOR HEAD 
                                                   Max.-Head-Change                        Max.-Flux-Residual
  Residual-Control   Outer-Iter.   Inner-Iter.     Column Row Layer    Max.-Head-Change    Column Row Layer    Max.-Flux-Residual            L2-New               L2-Old           Solver-Max-Delh
          0                 1           3           263   79     1      -0.1135774760E+01     139  122    1       0.6678823391E+03      0.3653507319E+04      0.2892305636E+02     -0.1135774760E+01
          0                 2           2           263   79     1       0.9762664430E-01     139  122    1      -0.6679804939E+02      0.3680107103E+03      0.3653507319E+04      0.9762664430E-01

    ------------------------------------------------
       NWT REQUIRED            2 OUTER ITERATIONS 
       AND A TOTAL OF          5 INNER ITERATIONS.
    ------------------------------------------------

 NO OUTPUT CONTROL FOR STRESS PERIOD   53   TIME STEP    2

 WELLS WITH REDUCED PUMPING FOR STRESS PERIOD    53 TIME STEP     2
   LAY   ROW   COL         APPL.Q          ACT.Q        GW-HEAD       CELL-BOT
     1    77   213  -0.728135E+03  -0.498237E+03   0.155485E+03   0.148000E+03
     1    92    77  -0.728135E+03  -0.431912E+03  -0.794433E+02  -0.930000E+02
     1    94    77  -0.728135E+03  -0.203536E+03  -0.941203E+02  -0.102000E+03
     1    94    73  -0.728135E+03  -0.242114E+03  -0.662019E+02  -0.740000E+02


 SOLVING FOR HEAD 
                                                   Max.-Head-Change                        Max.-Flux-Residual
  Residual-Control   Outer-Iter.   Inner-Iter.     Column Row Layer    Max.-Head-Change    Column Row Layer    Max.-Flux-Residual            L2-New               L2-Old           Solver-Max-Delh
          0                 1           3           263   79     1      -0.4429878595E+00     197   82    1       0.6510130428E+03      0.3388017207E+04      0.3680107103E+03     -0.4429878595E+00
          0                 2           2           263   79     1       0.3823321102E-01     197   82    1      -0.6510973604E+02      0.3387998706E+03      0.3388017207E+04      0.3823321102E-01

    ------------------------------------------------
       NWT REQUIRED            2 OUTER ITERATIONS 
       AND A TOTAL OF          5 INNER ITERATIONS.
    ------------------------------------------------

 NO OUTPUT CONTROL FOR STRESS PERIOD   53   TIME STEP    3

 WELLS WITH REDUCED PUMPING FOR STRESS PERIOD    53 TIME STEP     3
   LAY   ROW   COL         APPL.Q          ACT.Q        GW-HEAD       CELL-BOT
     1    77   213  -0.728135E+03  -0.508022E+03   0.155600E+03   0.148000E+03
     1    92    77  -0.728135E+03  -0.425803E+03  -0.795800E+02  -0.930000E+02
     1    94    77  -0.728135E+03  -0.206274E+03  -0.940580E+02  -0.102000E+03
     1    94    73  -0.728135E+03  -0.245925E+03  -0.661278E+02  -0.740000E+02


 SOLVING FOR HEAD 
                                                   Max.-Head-Change                        Max.-Flux-Residual
  Residual-Control   Outer-Iter.   Inner-Iter.     Column Row Layer    Max.-Head-Change    Column Row Layer    Max.-Flux-Residual            L2-New               L2-Old           Solver-Max-Delh
          0                 1           3           197   82     1       0.2623390806E+00     197   82    1       0.6400192818E+03      0.3266292447E+04      0.3387998706E+03      0.2623390806E+00
          0                 2           2           197   82     1      -0.2265893090E-01     197   82    1      -0.6401012857E+02      0.3265862221E+03      0.3266292447E+04     -0.2265893090E-01

    ------------------------------------------------
       NWT REQUIRED            2 OUTER ITERATIONS 
       AND A TOTAL OF          5 INNER ITERATIONS.
    ------------------------------------------------

 NO OUTPUT CONTROL FOR STRESS PERIOD   53   TIME STEP    4

 WELLS WITH REDUCED PUMPING FOR STRESS PERIOD    53 TIME STEP     4
   LAY   ROW   COL         APPL.Q          ACT.Q        GW-HEAD       CELL-BOT
     1    77   213  -0.728135E+03  -0.517326E+03   0.155711E+03   0.148000E+03
     1    92    77  -0.728135E+03  -0.421242E+03  -0.796819E+02  -0.930000E+02
     1    94    77  -0.728135E+03  -0.208973E+03  -0.939968E+02  -0.102000E+03
     1    94    73  -0.728135E+03  -0.249667E+03  -0.660552E+02  -0.740000E+02


 SOLVING FOR HEAD 
                                                   Max.-Head-Change                        Max.-Flux-Residual
  Residual-Control   Outer-Iter.   Inner-Iter.     Column Row Layer    Max.-Head-Change    Column Row Layer    Max.-Flux-Residual            L2-New               L2-Old           Solver-Max-Delh
          0                 1           3           197   82     1       0.2579203915E+00     197   82    1       0.6292272092E+03      0.3185133031E+04      0.3265862221E+03      0.2579203915E+00
          0                 2           2           197   82     1      -0.2227725714E-01     197   82    1      -0.6293070382E+02      0.3185376070E+03      0.3185133031E+04     -0.2227725714E-01

    ------------------------------------------------
       NWT REQUIRED            2 OUTER ITERATIONS 
       AND A TOTAL OF          5 INNER ITERATIONS.
    ------------------------------------------------

 NO OUTPUT CONTROL FOR STRESS PERIOD   53   TIME STEP    5

 WELLS WITH REDUCED PUMPING FOR STRESS PERIOD    53 TIME STEP     5
   LAY   ROW   COL         APPL.Q          ACT.Q        GW-HEAD       CELL-BOT
     1    77   213  -0.728135E+03  -0.526172E+03   0.155817E+03   0.148000E+03
     1    92    77  -0.728135E+03  -0.417825E+03  -0.797581E+02  -0.930000E+02
     1    94    77  -0.728135E+03  -0.211631E+03  -0.939367E+02  -0.102000E+03
     1    94    73  -0.728135E+03  -0.253342E+03  -0.659842E+02  -0.740000E+02


 SOLVING FOR HEAD 
                                                   Max.-Head-Change                        Max.-Flux-Residual
  Residual-Control   Outer-Iter.   Inner-Iter.     Column Row Layer    Max.-Head-Change    Column Row Layer    Max.-Flux-Residual            L2-New               L2-Old           Solver-Max-Delh
          0                 1           3           197   82     1       0.2535846090E+00     197   82    1       0.6186362436E+03      0.3121270573E+04      0.3185376070E+03      0.2535846090E+00
          0                 2           2           197   82     1      -0.2190274242E-01     197   82    1      -0.6187139861E+02      0.3121239976E+03      0.3121270573E+04     -0.2190274242E-01

    ------------------------------------------------
       NWT REQUIRED            2 OUTER ITERATIONS 
       AND A TOTAL OF          5 INNER ITERATIONS.
    ------------------------------------------------

 NO OUTPUT CONTROL FOR STRESS PERIOD   53   TIME STEP    6

 WELLS WITH REDUCED PUMPING FOR STRESS PERIOD    53 TIME STEP     6
   LAY   ROW   COL         APPL.Q          ACT.Q        GW-HEAD       CELL-BOT
     1    77   213  -0.728135E+03  -0.534581E+03   0.155920E+03   0.148000E+03
     1    92    77  -0.728135E+03  -0.415253E+03  -0.798154E+02  -0.930000E+02
     1    94    77  -0.728135E+03  -0.214249E+03  -0.938777E+02  -0.102000E+03
     1    94    73  -0.728135E+03  -0.256950E+03  -0.659147E+02  -0.740000E+02


 SOLVING FOR HEAD 
                                                   Max.-Head-Change                        Max.-Flux-Residual
  Residual-Control   Outer-Iter.   Inner-Iter.     Column Row Layer    Max.-Head-Change    Column Row Layer    Max.-Flux-Residual            L2-New               L2-Old           Solver-Max-Delh
          0                 1           3           197   82     1       0.2493303702E+00     197   82    1       0.6082438869E+03      0.3066891463E+04      0.3121239976E+03      0.2493303702E+00
          0                 2           2           197   82     1      -0.2153527217E-01     197   82    1      -0.6083196117E+02      0.3067341902E+03      0.3066891463E+04     -0.2153527217E-01

    ------------------------------------------------
       NWT REQUIRED            2 OUTER ITERATIONS 
       AND A TOTAL OF          5 INNER ITERATIONS.
    ------------------------------------------------

 NO OUTPUT CONTROL FOR STRESS PERIOD   53   TIME STEP    7

 WELLS WITH REDUCED PUMPING FOR STRESS PERIOD    53 TIME STEP     7
   LAY   ROW   COL         APPL.Q          ACT.Q        GW-HEAD       CELL-BOT
     1    77   213  -0.728135E+03  -0.542574E+03   0.156018E+03   0.148000E+03
     1    92    77  -0.728135E+03  -0.413302E+03  -0.798588E+02  -0.930000E+02
     1    94    77  -0.728135E+03  -0.216828E+03  -0.938198E+02  -0.102000E+03
     1    94    73  -0.728135E+03  -0.260491E+03  -0.658467E+02  -0.740000E+02


 SOLVING FOR HEAD 
                                                   Max.-Head-Change                        Max.-Flux-Residual
  Residual-Control   Outer-Iter.   Inner-Iter.     Column Row Layer    Max.-Head-Change    Column Row Layer    Max.-Flux-Residual            L2-New               L2-Old           Solver-Max-Delh
          0                 1           3           197   82     1       0.2451560667E+00     197   82    1       0.5980465581E+03      0.3018648347E+04      0.3067341902E+03      0.2451560667E+00
          0                 2           2           204   88     1      -0.5357400090E-01     204   88    1      -0.8728604658E+02      0.3164104643E+03      0.3018648347E+04     -0.5357400090E-01

    ------------------------------------------------
       NWT REQUIRED            2 OUTER ITERATIONS 
       AND A TOTAL OF          5 INNER ITERATIONS.
    ------------------------------------------------

 NO OUTPUT CONTROL FOR STRESS PERIOD   53   TIME STEP    8

 WELLS WITH REDUCED PUMPING FOR STRESS PERIOD    53 TIME STEP     8
   LAY   ROW   COL         APPL.Q          ACT.Q        GW-HEAD       CELL-BOT
     1    77   213  -0.728135E+03  -0.550173E+03   0.156113E+03   0.148000E+03
     1    92    77  -0.728135E+03  -0.411810E+03  -0.798920E+02  -0.930000E+02
     1    94    77  -0.728135E+03  -0.219367E+03  -0.937629E+02  -0.102000E+03
     1    94    73  -0.728135E+03  -0.263965E+03  -0.657801E+02  -0.740000E+02


 SOLVING FOR HEAD 
                                                   Max.-Head-Change                        Max.-Flux-Residual
  Residual-Control   Outer-Iter.   Inner-Iter.     Column Row Layer    Max.-Head-Change    Column Row Layer    Max.-Flux-Residual            L2-New               L2-Old           Solver-Max-Delh
          0                 1           3           197   82     1       0.2410602422E+00     197   82    1       0.5880408572E+03      0.2974640378E+04      0.3164104643E+03      0.2410602422E+00
          0                 2           2           197   82     1      -0.2082092158E-01     197   82    1      -0.5881127214E+02      0.2975164286E+03      0.2974640378E+04     -0.2082092158E-01

    ------------------------------------------------
       NWT REQUIRED            2 OUTER ITERATIONS 
       AND A TOTAL OF          5 INNER ITERATIONS.
    ------------------------------------------------

 NO OUTPUT CONTROL FOR STRESS PERIOD   53   TIME STEP    9

 WELLS WITH REDUCED PUMPING FOR STRESS PERIOD    53 TIME STEP     9
   LAY   ROW   COL         APPL.Q          ACT.Q        GW-HEAD       CELL-BOT
     1    77   213  -0.728135E+03  -0.557396E+03   0.156204E+03   0.148000E+03
     1    92    77  -0.728135E+03  -0.410654E+03  -0.799177E+02  -0.930000E+02
     1    94    77  -0.728135E+03  -0.221867E+03  -0.937071E+02  -0.102000E+03
     1    94    73  -0.728135E+03  -0.267374E+03  -0.657150E+02  -0.740000E+02


 SOLVING FOR HEAD 
                                                   Max.-Head-Change                        Max.-Flux-Residual
  Residual-Control   Outer-Iter.   Inner-Iter.     Column Row Layer    Max.-Head-Change    Column Row Layer    Max.-Flux-Residual            L2-New               L2-Old           Solver-Max-Delh
          0                 1           3           197   82     1       0.2370413088E+00     197   82    1       0.5782229884E+03      0.2934375939E+04      0.2975164286E+03      0.2370413088E+00
          0                 2           2           197   82     1      -0.2047377806E-01     197   82    1      -0.5782930018E+02      0.2934259601E+03      0.2934375939E+04     -0.2047377806E-01

    ------------------------------------------------
       NWT REQUIRED            2 OUTER ITERATIONS 
       AND A TOTAL OF          5 INNER ITERATIONS.
    ------------------------------------------------

 OUTPUT CONTROL FOR STRESS PERIOD   53   TIME STEP   10
    SAVE HEAD FOR ALL LAYERS

 WELLS WITH REDUCED PUMPING FOR STRESS PERIOD    53 TIME STEP    10
   LAY   ROW   COL         APPL.Q          ACT.Q        GW-HEAD       CELL-BOT
     1    77   213  -0.728135E+03  -0.564263E+03   0.156292E+03   0.148000E+03
     1    92    77  -0.728135E+03  -0.409747E+03  -0.799379E+02  -0.930000E+02
     1    94    77  -0.728135E+03  -0.224327E+03  -0.936524E+02  -0.102000E+03
     1    94    73  -0.728135E+03  -0.270716E+03  -0.656512E+02  -0.740000E+02


 HEAD WILL BE SAVED ON UNIT   51 AT END OF TIME STEP   10, STRESS PERIOD   53
1
  VOLUMETRIC BUDGET FOR ENTIRE MODEL AT END OF TIME STEP   10, STRESS PERIOD  53
  ------------------------------------------------------------------------------

     CUMULATIVE VOLUMES      L**3       RATES FOR THIS TIME STEP      L**3/T
     ------------------                 ------------------------

           IN:                                      IN:
           ---                                      ---
             STORAGE =   533598944.0000               STORAGE =      137594.8750
       CONSTANT HEAD =    81546320.0000         CONSTANT HEAD =       52055.0586
               WELLS =           0.0000                 WELLS =           0.0000
              DRAINS =           0.0000                DRAINS =           0.0000
                  ET =           0.0000                    ET =           0.0000
            RECHARGE =   315711488.0000              RECHARGE =      163075.7656

            TOTAL IN =   930856768.0000              TOTAL IN =      352725.6875

          OUT:                                     OUT:
          ----                                     ----
             STORAGE =   187594960.0000               STORAGE =       29098.3613
       CONSTANT HEAD =           0.0000         CONSTANT HEAD =           0.0000
               WELLS =   482175808.0000                 WELLS =      144337.1562
              DRAINS =   183681328.0000                DRAINS =      130919.3516
                  ET =    76279960.0000                    ET =       47830.4375
            RECHARGE =       81860.0000              RECHARGE =           0.0000

           TOTAL OUT =   929813888.0000             TOTAL OUT =      352185.3125

            IN - OUT =     1042880.0000              IN - OUT =         540.3750

 PERCENT DISCREPANCY =           0.11     PERCENT DISCREPANCY =           0.15






         TIME SUMMARY AT END OF TIME STEP   10 IN STRESS PERIOD   53
                    SECONDS     MINUTES      HOURS       DAYS        YEARS
                    -----------------------------------------------------------
   TIME STEP LENGTH 2.62656E+05  4377.6      72.960      3.0400     8.32307E-03
 STRESS PERIOD TIME 2.62656E+06  43776.      729.60      30.400     8.32307E-02
         TOTAL TIME 1.39208E+08 2.32013E+06  38669.      1611.2      4.4112    
1
1
                            STRESS PERIOD NO.   54, LENGTH =   30.40000    
                            -----------------------------------------------

                              NUMBER OF TIME STEPS =    10

                               MULTIPLIER FOR DELT =     1.000

                            INITIAL TIME STEP SIZE =   3.040000    

 WELL NO.  LAYER   ROW   COL   STRESS RATE         
 --------------------------------------------------
      1      1     69    225      -4579.    
      2      1     71    224       0.000    
      3      1     74    220       0.000    
      4      1     73    220       0.000    
      5      1     71    223       0.000    
      6      1     71    223       0.000    
      7      1     72    223       0.000    
      8      1     92    173       0.000    
      9      1     94    174       0.000    
     10      1     93    175       0.000    
     11      1    203    328       0.000    
     12      1    438    460      -2895.    
     13      1    436    461      -2895.    
     14      1    410    454      -2895.    
     15      1    433    460      -2895.    
     16      1    431    462      -2895.    
     17      1    417    459      -2895.    
     18      1    418    458      -2895.    
     19      1    414    455      -2895.    
     20      1    443    464      -2895.    
     21      1    379    425      -2895.    
     22      1    362    405      -2895.    
     23      1    361    405      -2895.    
     24      1    362    406      -2895.    
     25      1    363    408      -2895.    
     26      1    364    410      -2895.    
     27      1    369    418      -2895.    
     28      1    367    417      -2895.    
     29      1    365    415      -2895.    
     30      1    402    447      -2895.    
     31      1    400    446      -2895.    
     32      1    392    444      -2895.    
     33      1    391    441      -2895.    
     34      1    403    448      -2895.    
     35      1    405    447      -2895.    
     36      1    362    410      -2895.    
     37      1    362    411      -2895.    
     38      1    363    412      -2895.    
     39      1    375    421      -2895.    
     40      1    383    430      -2895.    
     41      1    397    445      -2895.    
     42      1    360    403      -2895.    
     43      1    350    401      -2895.    
     44      1    346    393      -3859.    
     45      1    333    387      -3859.    
     46      1    328    384      -3859.    
     47      1    326    383      -3859.    
     48      1    323    378      -3859.    
     49      1    321    378      -3859.    
     50      1    322    376      -3859.    
     51      1    316    374      -3859.    
     52      1    311    371      -3859.    
     53      1    307    369      -3859.    
     54      1    305    368      -3859.    
     55      1    303    368      -3859.    
     56      1    300    369      -3859.    
     57      1    293    364      -3859.    
     58      1    292    362      -3859.    
     59      1    278    350      -3859.    
     60      1    274    351      -3859.    
     61      1    273    350      -3859.    
     62      1    271    350      -3859.    
     63      1    267    348      -3859.    
     64      1    263    348      -3859.    
     65      1    263    348      -3859.    
     66      1    248    347      -3859.    
     67      1    243    342      -3859.    
     68      1    242    339      -3859.    
     69      1    238    341      -3859.    
     70      1    233    340      -3859.    
     71      1    232    340      -3859.    
     72      1    229    341      -3859.    
     73      1    227    341      -3859.    
     74      1    219    342      -3859.    
     75      1    219    336      -3859.    
     76      1    199    329      -3859.    
     77      1    191    332      -4993.    
     78      1    190    332      -4993.    
     79      1    130    310      -4993.    
     80      1    123    305      -4993.    
     81      1    104    289      -4993.    
     82      1     96    287      -4290.    
     83      1     95    284      -4290.    
     84      1     95    280      -4290.    
     85      1     93    276      -4290.    
     86      1     94    275      -4290.    
     87      1     90    277      -4290.    
     88      1     90    273      -4290.    
     89      1     86    271      -4290.    
     90      1     85    270      -4290.    
     91      1     84    265      -4290.    
     92      1     85    265      -4290.    
     93      1     84    264      -4290.    
     94      1     79    263      -4290.    
     95      1     79    263      -4290.    
     96      1     76    262      -4290.    
     97      1     73    257      -4290.    
     98      1     74    255      -4290.    
     99      1     71    255      -4290.    
    100      1     66    253      -4290.    
    101      1     68    252      -4290.    
    102      1     69    250      -4290.    
    103      1     65    248      -4290.    
    104      1     68    248      -4290.    
    105      1     69    247      -4290.    
    106      1     73    247      -4290.    
    107      1     64    246      -4290.    
    108      1     69    245      -4290.    
    109      1     72    245      -4290.    
    110      1     69    241      -4290.    
    111      1     73    238      -4290.    
    112      1     70    238      -4290.    
    113      1     76    263      -4290.    
    114      1     66    232      -2310.    
    115      1     69    229      -2310.    
    116      1     71    228      -2310.    
    117      1     69    227      -2310.    
    118      1     72    219      -2310.    
    119      1     72    218      -2310.    
    120      1     72    218      -2310.    
    121      1     73    217      -2310.    
    122      1     77    219      -2310.    
    123      1     78    219      -2310.    
    124      1     83    213      -2310.    
    125      1     77    213      -2310.    
    126      1     81    211      -2310.    
    127      1     81    210      -2310.    
    128      1     81    210      -2310.    
    129      1     82    208      -2310.    
    130      1     80    205      -2310.    
    131      1     86    202      -2310.    
    132      1     84    200      -2310.    
    133      1     89    200      -2310.    
    134      1     89    199      -2310.    
    135      1     88    199      -2310.    
    136      1     86    199      -2310.    
    137      1     85    199      -2310.    
    138      1     82    197      -2310.    
    139      1     86    197      -2310.    
    140      1     88    198      -2310.    
    141      1     90    192      -2310.    
    142      1     89    191      -2310.    
    143      1     84    192      -2310.    
    144      1     91    189      -2310.    
    145      1     92    185      -2310.    
    146      1     87    183      -2310.    
    147      1     92    182      -2310.    
    148      1     90    182      -2310.    
    149      1     88    179      -2310.    
    150      1     89    176      -2310.    
    151      1     92    172      -2310.    
    152      1     93    164      -2310.    
    153      1     94    162      -2310.    
    154      1    103    156      -2310.    
    155      1    103    156      -2310.    
    156      1     96    154      -2310.    
    157      1     97    153      -2310.    
    158      1    122    139      -2310.    
    159      1     92     77      -2310.    
    160      1     94     77      -2310.    
    161      1     94     73      -2310.    
    162      1     97    152      -2310.    
    163      1    118    337      -666.7    
    164      1    133    319      -2678.    
    165      1    131    320      -3951.    
    166      1    133    321      -2956.    
    167      1    161    329      -2141.    
    168      1    178    330      -551.0    
    169      1    163    330      -1122.    
    170      1    131    320      -2473.    
    171      1    129    315      -3937.    
    172      1    162    329      -1959.    
    173      1    131    311      -826.1    
    174      1    221    340      -1994.    
    175      1    220    340      -1034.    
    176      1    221    340      -667.7    
    177      1    137    322      -2082.    
    178      1    137    321      -1407.    
    179      1    185    329      -2012.    
    180      1    183    329      -1473.    
    181      1    175    329      -585.3    
    182      1     79    243      -1490.    
    183      1     77    245      -2414.    
    184      1    199    329      -1617.    
    185      1    198    330      -2514.    
    186      1    140    328      -972.1    
    187      1    143    327      -863.6    
    188      1    139    327      -1331.    

    188 WELLS

 REUSING NON-PARAMETER DRAINS FROM LAST STRESS PERIOD

   1061 DRAINS

 REUSING SURF FROM LAST STRESS PERIOD

 REUSING EVTR FROM LAST STRESS PERIOD

 REUSING EXDP FROM LAST STRESS PERIOD



                           RECHARGE
 READING ON UNIT   19 WITH FORMAT: (510E15.6)          

 SOLVING FOR HEAD 
                                                   Max.-Head-Change                        Max.-Flux-Residual
  Residual-Control   Outer-Iter.   Inner-Iter.     Column Row Layer    Max.-Head-Change    Column Row Layer    Max.-Flux-Residual            L2-New               L2-Old           Solver-Max-Delh
          0                 1           3           263   79     1      -0.1901145095E+02     348  263    1      -0.6532595350E+04      0.3323906003E+05      0.2934259601E+03     -0.1901145095E+02
          0                 2           2           263   79     1       0.1446077581E+01     238   70    1       0.6710918255E+03      0.3348460722E+04      0.3323906003E+05      0.1446077581E+01
          0                 3           2           263   79     1       0.7064036686E-01     238   70    1       0.3352023231E+02      0.1671063862E+03      0.3348460722E+04      0.7064036686E-01

    ------------------------------------------------
       NWT REQUIRED            3 OUTER ITERATIONS 
       AND A TOTAL OF          7 INNER ITERATIONS.
    ------------------------------------------------

 NO OUTPUT CONTROL FOR STRESS PERIOD   54   TIME STEP    1

 WELLS WITH REDUCED PUMPING FOR STRESS PERIOD    54 TIME STEP     1
   LAY   ROW   COL         APPL.Q          ACT.Q        GW-HEAD       CELL-BOT
     1    77   213  -0.230952E+04  -0.170491E+04   0.155955E+03   0.148000E+03
     1    92    77  -0.230952E+04  -0.853659E+03  -0.830650E+02  -0.930000E+02
     1    94    77  -0.230952E+04  -0.695029E+03  -0.937683E+02  -0.102000E+03
     1    94    73  -0.230952E+04  -0.834989E+03  -0.657938E+02  -0.740000E+02


 SOLVING FOR HEAD 
                                                   Max.-Head-Change                        Max.-Flux-Residual
  Residual-Control   Outer-Iter.   Inner-Iter.     Column Row Layer    Max.-Head-Change    Column Row Layer    Max.-Flux-Residual            L2-New               L2-Old           Solver-Max-Delh
          0                 1           3           263   79     1      -0.8038773359E+01     374  316    1      -0.2836460419E+04      0.1717283585E+05      0.1671063862E+03     -0.8038773359E+01
          0                 2           3           263   79     1       0.6431687743E+00     374  316    1       0.2833976690E+03      0.1706601141E+04      0.1717283585E+05      0.6431687743E+00
          0                 3           2           263   79     1       0.3170060764E-01     374  316    1       0.1416802519E+02      0.8528839423E+02      0.1706601141E+04      0.3170060764E-01

    ------------------------------------------------
       NWT REQUIRED            3 OUTER ITERATIONS 
       AND A TOTAL OF          8 INNER ITERATIONS.
    ------------------------------------------------

 NO OUTPUT CONTROL FOR STRESS PERIOD   54   TIME STEP    2

 WELLS WITH REDUCED PUMPING FOR STRESS PERIOD    54 TIME STEP     2
   LAY   ROW   COL         APPL.Q          ACT.Q        GW-HEAD       CELL-BOT
     1    77   213  -0.230952E+04  -0.162495E+04   0.155651E+03   0.148000E+03
     1    92    77  -0.230952E+04  -0.646245E+03  -0.845980E+02  -0.930000E+02
     1    94    77  -0.230952E+04  -0.679469E+03  -0.938784E+02  -0.102000E+03
     1    94    73  -0.230952E+04  -0.812842E+03  -0.659278E+02  -0.740000E+02


 SOLVING FOR HEAD 
                                                   Max.-Head-Change                        Max.-Flux-Residual
  Residual-Control   Outer-Iter.   Inner-Iter.     Column Row Layer    Max.-Head-Change    Column Row Layer    Max.-Flux-Residual            L2-New               L2-Old           Solver-Max-Delh
          0                 1           3           263   79     1      -0.3758973661E+01     374  316    1      -0.2539120677E+04      0.1407498707E+05      0.8528839423E+02     -0.3758973661E+01
          0                 2           2           263   79     1       0.3106215580E+00     374  316    1       0.2536734483E+03      0.1404039379E+04      0.1407498707E+05      0.3106215580E+00
          0                 3           2           263   79     1       0.1540066377E-01     374  316    1       0.1268189969E+02      0.7017605775E+02      0.1404039379E+04      0.1540066377E-01

    ------------------------------------------------
       NWT REQUIRED            3 OUTER ITERATIONS 
       AND A TOTAL OF          7 INNER ITERATIONS.
    ------------------------------------------------

 NO OUTPUT CONTROL FOR STRESS PERIOD   54   TIME STEP    3

 WELLS WITH REDUCED PUMPING FOR STRESS PERIOD    54 TIME STEP     3
   LAY   ROW   COL         APPL.Q          ACT.Q        GW-HEAD       CELL-BOT
     1    77   213  -0.230952E+04  -0.155057E+04   0.155376E+03   0.148000E+03
     1    92    77  -0.230952E+04  -0.547687E+03  -0.853706E+02  -0.930000E+02
     1    94    77  -0.230952E+04  -0.664789E+03  -0.939828E+02  -0.102000E+03
     1    94    73  -0.230952E+04  -0.792124E+03  -0.660539E+02  -0.740000E+02


 SOLVING FOR HEAD 
                                                   Max.-Head-Change                        Max.-Flux-Residual
  Residual-Control   Outer-Iter.   Inner-Iter.     Column Row Layer    Max.-Head-Change    Column Row Layer    Max.-Flux-Residual            L2-New               L2-Old           Solver-Max-Delh
          0                 1           3           263   79     1      -0.1989241571E+01     374  316    1      -0.2279289951E+04      0.1261812175E+05      0.7017605775E+02     -0.1989241571E+01
          0                 2           2           263   79     1       0.1674343263E+00     374  316    1       0.2277075849E+03      0.1260149962E+04      0.1261812175E+05      0.1674343263E+00
          0                 3           2           457  453     1       0.1512157131E-01     374  316    1       0.1138374175E+02      0.6300759894E+02      0.1260149962E+04      0.1512157131E-01

    ------------------------------------------------
       NWT REQUIRED            3 OUTER ITERATIONS 
       AND A TOTAL OF          7 INNER ITERATIONS.
    ------------------------------------------------

 NO OUTPUT CONTROL FOR STRESS PERIOD   54   TIME STEP    4

 WELLS WITH REDUCED PUMPING FOR STRESS PERIOD    54 TIME STEP     4
   LAY   ROW   COL         APPL.Q          ACT.Q        GW-HEAD       CELL-BOT
     1    77   213  -0.230952E+04  -0.148206E+04   0.155128E+03   0.148000E+03
     1    92    77  -0.230952E+04  -0.499063E+03  -0.857673E+02  -0.930000E+02
     1    94    77  -0.230952E+04  -0.650934E+03  -0.940819E+02  -0.102000E+03
     1    94    73  -0.230952E+04  -0.772735E+03  -0.661725E+02  -0.740000E+02


 SOLVING FOR HEAD 
                                                   Max.-Head-Change                        Max.-Flux-Residual
  Residual-Control   Outer-Iter.   Inner-Iter.     Column Row Layer    Max.-Head-Change    Column Row Layer    Max.-Flux-Residual            L2-New               L2-Old           Solver-Max-Delh
          0                 1           3           263   79     1      -0.1203737867E+01     378  321    1      -0.2079113830E+04      0.1173725792E+05      0.6300759894E+02     -0.1203737867E+01
          0                 2           2           263   79     1       0.1023535638E+00     378  321    1       0.2076915093E+03      0.1173942627E+04      0.1173725792E+05      0.1023535638E+00
          0                 3           2           457  453     1       0.1511134345E-01     378  321    1       0.1038293160E+02      0.5868987690E+02      0.1173942627E+04      0.1511134345E-01

    ------------------------------------------------
       NWT REQUIRED            3 OUTER ITERATIONS 
       AND A TOTAL OF          7 INNER ITERATIONS.
    ------------------------------------------------

 NO OUTPUT CONTROL FOR STRESS PERIOD   54   TIME STEP    5

 WELLS WITH REDUCED PUMPING FOR STRESS PERIOD    54 TIME STEP     5
   LAY   ROW   COL         APPL.Q          ACT.Q        GW-HEAD       CELL-BOT
     1    77   213  -0.230952E+04  -0.141940E+04   0.154905E+03   0.148000E+03
     1    92    77  -0.230952E+04  -0.474425E+03  -0.859730E+02  -0.930000E+02
     1    94    77  -0.230952E+04  -0.637852E+03  -0.941760E+02  -0.102000E+03
     1    94    73  -0.230952E+04  -0.754585E+03  -0.662842E+02  -0.740000E+02


 SOLVING FOR HEAD 
                                                   Max.-Head-Change                        Max.-Flux-Residual
  Residual-Control   Outer-Iter.   Inner-Iter.     Column Row Layer    Max.-Head-Change    Column Row Layer    Max.-Flux-Residual            L2-New               L2-Old           Solver-Max-Delh
          0                 1           3           264   78     1      -0.9473335840E+00     378  321    1      -0.1904552370E+04      0.1113120950E+05      0.5868987690E+02     -0.9473335840E+00
          0                 2           2           264   78     1       0.8057006405E-01     378  321    1       0.1902474671E+03      0.1118015212E+04      0.1113120950E+05      0.8057006405E-01

    ------------------------------------------------
       NWT REQUIRED            2 OUTER ITERATIONS 
       AND A TOTAL OF          5 INNER ITERATIONS.
    ------------------------------------------------

 NO OUTPUT CONTROL FOR STRESS PERIOD   54   TIME STEP    6

 WELLS WITH REDUCED PUMPING FOR STRESS PERIOD    54 TIME STEP     6
   LAY   ROW   COL         APPL.Q          ACT.Q        GW-HEAD       CELL-BOT
     1    77   213  -0.230952E+04  -0.136214E+04   0.154704E+03   0.148000E+03
     1    92    77  -0.230952E+04  -0.461685E+03  -0.860808E+02  -0.930000E+02
     1    94    77  -0.230952E+04  -0.625437E+03  -0.942658E+02  -0.102000E+03
     1    94    73  -0.230952E+04  -0.737507E+03  -0.663898E+02  -0.740000E+02


 SOLVING FOR HEAD 
                                                   Max.-Head-Change                        Max.-Flux-Residual
  Residual-Control   Outer-Iter.   Inner-Iter.     Column Row Layer    Max.-Head-Change    Column Row Layer    Max.-Flux-Residual            L2-New               L2-Old           Solver-Max-Delh
          0                 1           3           264   78     1      -0.8092985463E+00     378  321    1      -0.1749767362E+04      0.1067722837E+05      0.5640329131E+02     -0.8092985463E+00
          0                 2           2           264   78     1       0.6888256197E-01     458  433    1       0.2294391679E+03      0.1091608463E+04      0.1067722837E+05      0.6888256197E-01

    ------------------------------------------------
       NWT REQUIRED            2 OUTER ITERATIONS 
       AND A TOTAL OF          5 INNER ITERATIONS.
    ------------------------------------------------

 NO OUTPUT CONTROL FOR STRESS PERIOD   54   TIME STEP    7

 WELLS WITH REDUCED PUMPING FOR STRESS PERIOD    54 TIME STEP     7
   LAY   ROW   COL         APPL.Q          ACT.Q        GW-HEAD       CELL-BOT
     1    77   213  -0.230952E+04  -0.131031E+04   0.154522E+03   0.148000E+03
     1    92    77  -0.230952E+04  -0.455102E+03  -0.861369E+02  -0.930000E+02
     1    94    77  -0.230952E+04  -0.613708E+03  -0.943511E+02  -0.102000E+03
     1    94    73  -0.230952E+04  -0.721513E+03  -0.664892E+02  -0.740000E+02


 SOLVING FOR HEAD 
                                                   Max.-Head-Change                        Max.-Flux-Residual
  Residual-Control   Outer-Iter.   Inner-Iter.     Column Row Layer    Max.-Head-Change    Column Row Layer    Max.-Flux-Residual            L2-New               L2-Old           Solver-Max-Delh
          0                 1           3           343  217     1      -0.7262358690E+00     378  321    1      -0.1612845218E+04      0.1031883299E+05      0.5457547324E+02     -0.7262358690E+00
          0                 2           2           343  217     1       0.6225302701E-01     378  321    1       0.1611064246E+03      0.1031897633E+04      0.1031883299E+05      0.6225302701E-01

    ------------------------------------------------
       NWT REQUIRED            2 OUTER ITERATIONS 
       AND A TOTAL OF          5 INNER ITERATIONS.
    ------------------------------------------------

 NO OUTPUT CONTROL FOR STRESS PERIOD   54   TIME STEP    8

 WELLS WITH REDUCED PUMPING FOR STRESS PERIOD    54 TIME STEP     8
   LAY   ROW   COL         APPL.Q          ACT.Q        GW-HEAD       CELL-BOT
     1    77   213  -0.230952E+04  -0.126352E+04   0.154360E+03   0.148000E+03
     1    92    77  -0.230952E+04  -0.451691E+03  -0.861661E+02  -0.930000E+02
     1    94    77  -0.230952E+04  -0.602623E+03  -0.944322E+02  -0.102000E+03
     1    94    73  -0.230952E+04  -0.706528E+03  -0.665828E+02  -0.740000E+02


 SOLVING FOR HEAD 
                                                   Max.-Head-Change                        Max.-Flux-Residual
  Residual-Control   Outer-Iter.   Inner-Iter.     Column Row Layer    Max.-Head-Change    Column Row Layer    Max.-Flux-Residual            L2-New               L2-Old           Solver-Max-Delh
          0                 1           3           343  217     1      -0.6803709883E+00     378  321    1      -0.1491354259E+04      0.1002858821E+05      0.5159193975E+02     -0.6803709883E+00
          0                 2           2           343  217     1       0.5833772244E-01     378  321    1       0.1489724143E+03      0.1002614268E+04      0.1002858821E+05      0.5833772244E-01

    ------------------------------------------------
       NWT REQUIRED            2 OUTER ITERATIONS 
       AND A TOTAL OF          5 INNER ITERATIONS.
    ------------------------------------------------

 NO OUTPUT CONTROL FOR STRESS PERIOD   54   TIME STEP    9

 WELLS WITH REDUCED PUMPING FOR STRESS PERIOD    54 TIME STEP     9
   LAY   ROW   COL         APPL.Q          ACT.Q        GW-HEAD       CELL-BOT
     1    77   213  -0.230952E+04  -0.122138E+04   0.154214E+03   0.148000E+03
     1    92    77  -0.230952E+04  -0.449926E+03  -0.861812E+02  -0.930000E+02
     1    94    77  -0.230952E+04  -0.592143E+03  -0.945092E+02  -0.102000E+03
     1    94    73  -0.230952E+04  -0.692483E+03  -0.666711E+02  -0.740000E+02


 SOLVING FOR HEAD 
                                                   Max.-Head-Change                        Max.-Flux-Residual
  Residual-Control   Outer-Iter.   Inner-Iter.     Column Row Layer    Max.-Head-Change    Column Row Layer    Max.-Flux-Residual            L2-New               L2-Old           Solver-Max-Delh
          0                 1           3           343  217     1      -0.6339536585E+00     378  321    1      -0.1383261000E+04      0.9786400881E+04      0.5012827013E+02     -0.6339536585E+00
          0                 2           2           343  217     1       0.5437865569E-01     378  321    1       0.1381775197E+03      0.9781943388E+03      0.9786400881E+04      0.5437865569E-01

    ------------------------------------------------
       NWT REQUIRED            2 OUTER ITERATIONS 
       AND A TOTAL OF          5 INNER ITERATIONS.
    ------------------------------------------------

 OUTPUT CONTROL FOR STRESS PERIOD   54   TIME STEP   10
    SAVE HEAD FOR ALL LAYERS

 WELLS WITH REDUCED PUMPING FOR STRESS PERIOD    54 TIME STEP    10
   LAY   ROW   COL         APPL.Q          ACT.Q        GW-HEAD       CELL-BOT
     1    77   213  -0.230952E+04  -0.118348E+04   0.154083E+03   0.148000E+03
     1    92    77  -0.230952E+04  -0.449017E+03  -0.861890E+02  -0.930000E+02
     1    94    77  -0.230952E+04  -0.582230E+03  -0.945825E+02  -0.102000E+03
     1    94    73  -0.230952E+04  -0.679312E+03  -0.667542E+02  -0.740000E+02


 HEAD WILL BE SAVED ON UNIT   51 AT END OF TIME STEP   10, STRESS PERIOD   54
1
  VOLUMETRIC BUDGET FOR ENTIRE MODEL AT END OF TIME STEP   10, STRESS PERIOD  54
  ------------------------------------------------------------------------------

     CUMULATIVE VOLUMES      L**3       RATES FOR THIS TIME STEP      L**3/T
     ------------------                 ------------------------

           IN:                                      IN:
           ---                                      ---
             STORAGE =   547301056.0000               STORAGE =      439723.7188
       CONSTANT HEAD =    83128944.0000         CONSTANT HEAD =       52063.5117
               WELLS =           0.0000                 WELLS =           0.0000
              DRAINS =           0.0000                DRAINS =           0.0000
                  ET =           0.0000                    ET =           0.0000
            RECHARGE =   320306368.0000              RECHARGE =      151150.8125

            TOTAL IN =   950736384.0000              TOTAL IN =      642938.0000

          OUT:                                     OUT:
          ----                                     ----
             STORAGE =   188085776.0000               STORAGE =       12484.4072
       CONSTANT HEAD =           0.0000         CONSTANT HEAD =           0.0000
               WELLS =   496431424.0000                 WELLS =      468503.1562
              DRAINS =   187405168.0000                DRAINS =      116420.5625
                  ET =    77655040.0000                    ET =       43397.7188
            RECHARGE =       81860.0000              RECHARGE =           0.0000

           TOTAL OUT =   949659264.0000             TOTAL OUT =      640805.8750

            IN - OUT =     1077120.0000              IN - OUT =        2132.1250

 PERCENT DISCREPANCY =           0.11     PERCENT DISCREPANCY =           0.33






         TIME SUMMARY AT END OF TIME STEP   10 IN STRESS PERIOD   54
                    SECONDS     MINUTES      HOURS       DAYS        YEARS
                    -----------------------------------------------------------
   TIME STEP LENGTH 2.62656E+05  4377.6      72.960      3.0400     8.32307E-03
 STRESS PERIOD TIME 2.62656E+06  43776.      729.60      30.400     8.32307E-02
         TOTAL TIME 1.41835E+08 2.36391E+06  39399.      1641.6      4.4945    
1
1
                            STRESS PERIOD NO.   55, LENGTH =   30.40000    
                            -----------------------------------------------

                              NUMBER OF TIME STEPS =    10

                               MULTIPLIER FOR DELT =     1.000

                            INITIAL TIME STEP SIZE =   3.040000    

 WELL NO.  LAYER   ROW   COL   STRESS RATE         
 --------------------------------------------------
      1      1     69    225      -4666.    
      2      1     71    224       0.000    
      3      1     74    220       0.000    
      4      1     73    220       0.000    
      5      1     71    223       0.000    
      6      1     71    223       0.000    
      7      1     72    223       0.000    
      8      1     92    173       0.000    
      9      1     94    174       0.000    
     10      1     93    175       0.000    
     11      1    203    328       0.000    
     12      1    438    460      -2544.    
     13      1    436    461      -2544.    
     14      1    410    454      -2544.    
     15      1    433    460      -2544.    
     16      1    431    462      -2544.    
     17      1    417    459      -2544.    
     18      1    418    458      -2544.    
     19      1    414    455      -2544.    
     20      1    443    464      -2544.    
     21      1    379    425      -2544.    
     22      1    362    405      -2544.    
     23      1    361    405      -2544.    
     24      1    362    406      -2544.    
     25      1    363    408      -2544.    
     26      1    364    410      -2544.    
     27      1    369    418      -2544.    
     28      1    367    417      -2544.    
     29      1    365    415      -2544.    
     30      1    402    447      -2544.    
     31      1    400    446      -2544.    
     32      1    392    444      -2544.    
     33      1    391    441      -2544.    
     34      1    403    448      -2544.    
     35      1    405    447      -2544.    
     36      1    362    410      -2544.    
     37      1    362    411      -2544.    
     38      1    363    412      -2544.    
     39      1    375    421      -2544.    
     40      1    383    430      -2544.    
     41      1    397    445      -2544.    
     42      1    360    403      -2544.    
     43      1    350    401      -2544.    
     44      1    346    393      -3585.    
     45      1    333    387      -3585.    
     46      1    328    384      -3585.    
     47      1    326    383      -3585.    
     48      1    323    378      -3585.    
     49      1    321    378      -3585.    
     50      1    322    376      -3585.    
     51      1    316    374      -3585.    
     52      1    311    371      -3585.    
     53      1    307    369      -3585.    
     54      1    305    368      -3585.    
     55      1    303    368      -3585.    
     56      1    300    369      -3585.    
     57      1    293    364      -3585.    
     58      1    292    362      -3585.    
     59      1    278    350      -3585.    
     60      1    274    351      -3585.    
     61      1    273    350      -3585.    
     62      1    271    350      -3585.    
     63      1    267    348      -3585.    
     64      1    263    348      -3585.    
     65      1    263    348      -3585.    
     66      1    248    347      -3585.    
     67      1    243    342      -3585.    
     68      1    242    339      -3585.    
     69      1    238    341      -3585.    
     70      1    233    340      -3585.    
     71      1    232    340      -3585.    
     72      1    229    341      -3585.    
     73      1    227    341      -3585.    
     74      1    219    342      -3585.    
     75      1    219    336      -3585.    
     76      1    199    329      -3585.    
     77      1    191    332      -4532.    
     78      1    190    332      -4532.    
     79      1    130    310      -4532.    
     80      1    123    305      -4532.    
     81      1    104    289      -4532.    
     82      1     96    287      -3788.    
     83      1     95    284      -3788.    
     84      1     95    280      -3788.    
     85      1     93    276      -3788.    
     86      1     94    275      -3788.    
     87      1     90    277      -3788.    
     88      1     90    273      -3788.    
     89      1     86    271      -3788.    
     90      1     85    270      -3788.    
     91      1     84    265      -3788.    
     92      1     85    265      -3788.    
     93      1     84    264      -3788.    
     94      1     79    263      -3788.    
     95      1     79    263      -3788.    
     96      1     76    262      -3788.    
     97      1     73    257      -3788.    
     98      1     74    255      -3788.    
     99      1     71    255      -3788.    
    100      1     66    253      -3788.    
    101      1     68    252      -3788.    
    102      1     69    250      -3788.    
    103      1     65    248      -3788.    
    104      1     68    248      -3788.    
    105      1     69    247      -3788.    
    106      1     73    247      -3788.    
    107      1     64    246      -3788.    
    108      1     69    245      -3788.    
    109      1     72    245      -3788.    
    110      1     69    241      -3788.    
    111      1     73    238      -3788.    
    112      1     70    238      -3788.    
    113      1     76    263      -3788.    
    114      1     66    232      -2343.    
    115      1     69    229      -2343.    
    116      1     71    228      -2343.    
    117      1     69    227      -2343.    
    118      1     72    219      -2343.    
    119      1     72    218      -2343.    
    120      1     72    218      -2343.    
    121      1     73    217      -2343.    
    122      1     77    219      -2343.    
    123      1     78    219      -2343.    
    124      1     83    213      -2343.    
    125      1     77    213      -2343.    
    126      1     81    211      -2343.    
    127      1     81    210      -2343.    
    128      1     81    210      -2343.    
    129      1     82    208      -2343.    
    130      1     80    205      -2343.    
    131      1     86    202      -2343.    
    132      1     84    200      -2343.    
    133      1     89    200      -2343.    
    134      1     89    199      -2343.    
    135      1     88    199      -2343.    
    136      1     86    199      -2343.    
    137      1     85    199      -2343.    
    138      1     82    197      -2343.    
    139      1     86    197      -2343.    
    140      1     88    198      -2343.    
    141      1     90    192      -2343.    
    142      1     89    191      -2343.    
    143      1     84    192      -2343.    
    144      1     91    189      -2343.    
    145      1     92    185      -2343.    
    146      1     87    183      -2343.    
    147      1     92    182      -2343.    
    148      1     90    182      -2343.    
    149      1     88    179      -2343.    
    150      1     89    176      -2343.    
    151      1     92    172      -2343.    
    152      1     93    164      -2343.    
    153      1     94    162      -2343.    
    154      1    103    156      -2343.    
    155      1    103    156      -2343.    
    156      1     96    154      -2343.    
    157      1     97    153      -2343.    
    158      1    122    139      -2343.    
    159      1     92     77      -2343.    
    160      1     94     77      -2343.    
    161      1     94     73      -2343.    
    162      1     97    152      -2343.    
    163      1    118    337      -666.7    
    164      1    133    319      -2678.    
    165      1    131    320      -3951.    
    166      1    133    321      -2956.    
    167      1    161    329      -2141.    
    168      1    178    330      -551.0    
    169      1    163    330      -1122.    
    170      1    131    320      -2473.    
    171      1    129    315      -3937.    
    172      1    162    329      -1959.    
    173      1    131    311      -826.1    
    174      1    221    340      -1994.    
    175      1    220    340      -1034.    
    176      1    221    340      -667.7    
    177      1    137    322      -2082.    
    178      1    137    321      -1407.    
    179      1    185    329      -2012.    
    180      1    183    329      -1473.    
    181      1    175    329      -585.3    
    182      1     79    243      -1490.    
    183      1     77    245      -2414.    
    184      1    199    329      -1617.    
    185      1    198    330      -2514.    
    186      1    140    328      -972.1    
    187      1    143    327      -863.6    
    188      1    139    327      -1331.    

    188 WELLS

 REUSING NON-PARAMETER DRAINS FROM LAST STRESS PERIOD

   1061 DRAINS

 REUSING SURF FROM LAST STRESS PERIOD

 REUSING EVTR FROM LAST STRESS PERIOD

 REUSING EXDP FROM LAST STRESS PERIOD



                           RECHARGE
 READING ON UNIT   19 WITH FORMAT: (510E15.6)          

 SOLVING FOR HEAD 
                                                   Max.-Head-Change                        Max.-Flux-Residual
  Residual-Control   Outer-Iter.   Inner-Iter.     Column Row Layer    Max.-Head-Change    Column Row Layer    Max.-Flux-Residual            L2-New               L2-Old           Solver-Max-Delh
          0                 1           3           263   79     1       0.2770583032E+01     378  321    1      -0.1012707753E+04      0.1090516160E+05      0.4890787991E+02      0.2770583032E+01
          0                 2           2           263   79     1      -0.2402984118E+00     378  321    1       0.1011796550E+03      0.1089180640E+04      0.1090516160E+05     -0.2402984118E+00
          0                 3           2           457  453     1       0.1520690687E-01     378  321    1       0.5058301337E+01      0.5444909910E+02      0.1089180640E+04      0.1520690687E-01

    ------------------------------------------------
       NWT REQUIRED            3 OUTER ITERATIONS 
       AND A TOTAL OF          7 INNER ITERATIONS.
    ------------------------------------------------

 NO OUTPUT CONTROL FOR STRESS PERIOD   55   TIME STEP    1

 WELLS WITH REDUCED PUMPING FOR STRESS PERIOD    55 TIME STEP     1
   LAY   ROW   COL         APPL.Q          ACT.Q        GW-HEAD       CELL-BOT
     1    77   213  -0.234339E+04  -0.116481E+04   0.153960E+03   0.148000E+03
     1    92    77  -0.234339E+04  -0.452292E+03  -0.862170E+02  -0.930000E+02
     1    94    77  -0.234339E+04  -0.580905E+03  -0.946546E+02  -0.102000E+03
     1    94    73  -0.234339E+04  -0.676264E+03  -0.668356E+02  -0.740000E+02


 SOLVING FOR HEAD 
                                                   Max.-Head-Change                        Max.-Flux-Residual
  Residual-Control   Outer-Iter.   Inner-Iter.     Column Row Layer    Max.-Head-Change    Column Row Layer    Max.-Flux-Residual            L2-New               L2-Old           Solver-Max-Delh
          0                 1           3           263   79     1       0.1010830138E+01     378  321    1      -0.9522881148E+03      0.1004981230E+05      0.5444909910E+02      0.1010830138E+01
          0                 2           2           263   79     1      -0.8715864694E-01     378  321    1       0.9514609910E+02      0.1006315011E+04      0.1004981230E+05     -0.8715864694E-01

    ------------------------------------------------
       NWT REQUIRED            2 OUTER ITERATIONS 
       AND A TOTAL OF          5 INNER ITERATIONS.
    ------------------------------------------------

 NO OUTPUT CONTROL FOR STRESS PERIOD   55   TIME STEP    2

 WELLS WITH REDUCED PUMPING FOR STRESS PERIOD    55 TIME STEP     2
   LAY   ROW   COL         APPL.Q          ACT.Q        GW-HEAD       CELL-BOT
     1    77   213  -0.234339E+04  -0.113234E+04   0.153850E+03   0.148000E+03
     1    92    77  -0.234339E+04  -0.450573E+03  -0.862316E+02  -0.930000E+02
     1    94    77  -0.234339E+04  -0.571530E+03  -0.947236E+02  -0.102000E+03
     1    94    73  -0.234339E+04  -0.664006E+03  -0.669126E+02  -0.740000E+02


 SOLVING FOR HEAD 
                                                   Max.-Head-Change                        Max.-Flux-Residual
  Residual-Control   Outer-Iter.   Inner-Iter.     Column Row Layer    Max.-Head-Change    Column Row Layer    Max.-Flux-Residual            L2-New               L2-Old           Solver-Max-Delh
          0                 1           3           343  217     1      -0.4368223115E+00     378  321    1      -0.8971666146E+03      0.9793460429E+04      0.5031205389E+02     -0.4368223115E+00
          0                 2           2           343  217     1       0.3752621337E-01     456  424    1       0.9553983328E+02      0.9864104584E+03      0.9793460429E+04      0.3752621337E-01

    ------------------------------------------------
       NWT REQUIRED            2 OUTER ITERATIONS 
       AND A TOTAL OF          5 INNER ITERATIONS.
    ------------------------------------------------

 NO OUTPUT CONTROL FOR STRESS PERIOD   55   TIME STEP    3

 WELLS WITH REDUCED PUMPING FOR STRESS PERIOD    55 TIME STEP     3
   LAY   ROW   COL         APPL.Q          ACT.Q        GW-HEAD       CELL-BOT
     1    77   213  -0.234339E+04  -0.110325E+04   0.153750E+03   0.148000E+03
     1    92    77  -0.234339E+04  -0.449694E+03  -0.862390E+02  -0.930000E+02
     1    94    77  -0.234339E+04  -0.562661E+03  -0.947891E+02  -0.102000E+03
     1    94    73  -0.234339E+04  -0.652509E+03  -0.669852E+02  -0.740000E+02


 SOLVING FOR HEAD 
                                                   Max.-Head-Change                        Max.-Flux-Residual
  Residual-Control   Outer-Iter.   Inner-Iter.     Column Row Layer    Max.-Head-Change    Column Row Layer    Max.-Flux-Residual            L2-New               L2-Old           Solver-Max-Delh
          0                 1           3           343  217     1      -0.3909545952E+00     213   83    1      -0.8645181179E+03      0.9604547389E+04      0.4931743504E+02     -0.3909545952E+00
          0                 2           2           343  217     1       0.3360710739E-01     213   83    1       0.8642841001E+02      0.9601308684E+03      0.9604547389E+04      0.3360710739E-01

    ------------------------------------------------
       NWT REQUIRED            2 OUTER ITERATIONS 
       AND A TOTAL OF          5 INNER ITERATIONS.
    ------------------------------------------------

 NO OUTPUT CONTROL FOR STRESS PERIOD   55   TIME STEP    4

 WELLS WITH REDUCED PUMPING FOR STRESS PERIOD    55 TIME STEP     4
   LAY   ROW   COL         APPL.Q          ACT.Q        GW-HEAD       CELL-BOT
     1    77   213  -0.234339E+04  -0.107718E+04   0.153662E+03   0.148000E+03
     1    92    77  -0.234339E+04  -0.449250E+03  -0.862428E+02  -0.930000E+02
     1    94    77  -0.234339E+04  -0.554267E+03  -0.948514E+02  -0.102000E+03
     1    94    73  -0.234339E+04  -0.641720E+03  -0.670536E+02  -0.740000E+02


 SOLVING FOR HEAD 
                                                   Max.-Head-Change                        Max.-Flux-Residual
  Residual-Control   Outer-Iter.   Inner-Iter.     Column Row Layer    Max.-Head-Change    Column Row Layer    Max.-Flux-Residual            L2-New               L2-Old           Solver-Max-Delh
          0                 1           3           343  217     1      -0.3541583881E+00     213   83    1      -0.8514041387E+03      0.9445173220E+04      0.4799952830E+02     -0.3541583881E+00
          0                 2           2           343  217     1       0.3046321166E-01     213   83    1       0.8511751076E+02      0.9467173477E+03      0.9445173220E+04      0.3046321166E-01

    ------------------------------------------------
       NWT REQUIRED            2 OUTER ITERATIONS 
       AND A TOTAL OF          5 INNER ITERATIONS.
    ------------------------------------------------

 NO OUTPUT CONTROL FOR STRESS PERIOD   55   TIME STEP    5

 WELLS WITH REDUCED PUMPING FOR STRESS PERIOD    55 TIME STEP     5
   LAY   ROW   COL         APPL.Q          ACT.Q        GW-HEAD       CELL-BOT
     1    77   213  -0.234339E+04  -0.105381E+04   0.153582E+03   0.148000E+03
     1    92    77  -0.234339E+04  -0.449032E+03  -0.862447E+02  -0.930000E+02
     1    94    77  -0.234339E+04  -0.546319E+03  -0.949107E+02  -0.102000E+03
     1    94    73  -0.234339E+04  -0.631592E+03  -0.671182E+02  -0.740000E+02


 SOLVING FOR HEAD 
                                                   Max.-Head-Change                        Max.-Flux-Residual
  Residual-Control   Outer-Iter.   Inner-Iter.     Column Row Layer    Max.-Head-Change    Column Row Layer    Max.-Flux-Residual            L2-New               L2-Old           Solver-Max-Delh
          0                 1           3           213   83     1      -0.3442747688E+00     213   83    1      -0.8385794190E+03      0.9303474804E+04      0.4733394289E+02     -0.3442747688E+00
          0                 2           2           213   83     1       0.2972634255E-01     213   83    1       0.8383552732E+02      0.9299075392E+03      0.9303474804E+04      0.2972634255E-01

    ------------------------------------------------
       NWT REQUIRED            2 OUTER ITERATIONS 
       AND A TOTAL OF          5 INNER ITERATIONS.
    ------------------------------------------------

 NO OUTPUT CONTROL FOR STRESS PERIOD   55   TIME STEP    6

 WELLS WITH REDUCED PUMPING FOR STRESS PERIOD    55 TIME STEP     6
   LAY   ROW   COL         APPL.Q          ACT.Q        GW-HEAD       CELL-BOT
     1    77   213  -0.234339E+04  -0.103287E+04   0.153510E+03   0.148000E+03
     1    92    77  -0.234339E+04  -0.448931E+03  -0.862455E+02  -0.930000E+02
     1    94    77  -0.234339E+04  -0.538790E+03  -0.949671E+02  -0.102000E+03
     1    94    73  -0.234339E+04  -0.622080E+03  -0.671791E+02  -0.740000E+02


 SOLVING FOR HEAD 
                                                   Max.-Head-Change                        Max.-Flux-Residual
  Residual-Control   Outer-Iter.   Inner-Iter.     Column Row Layer    Max.-Head-Change    Column Row Layer    Max.-Flux-Residual            L2-New               L2-Old           Solver-Max-Delh
          0                 1           3           213   83     1      -0.3391666379E+00     213   83    1      -0.8260364445E+03      0.9174290636E+04      0.4649367719E+02     -0.3391666379E+00
          0                 2           2           204   74     1      -0.5926902853E-01     213   83    1       0.8258170824E+02      0.9178263150E+03      0.9174290636E+04     -0.5926902853E-01

    ------------------------------------------------
       NWT REQUIRED            2 OUTER ITERATIONS 
       AND A TOTAL OF          5 INNER ITERATIONS.
    ------------------------------------------------

 NO OUTPUT CONTROL FOR STRESS PERIOD   55   TIME STEP    7

 WELLS WITH REDUCED PUMPING FOR STRESS PERIOD    55 TIME STEP     7
   LAY   ROW   COL         APPL.Q          ACT.Q        GW-HEAD       CELL-BOT
     1    77   213  -0.234339E+04  -0.101408E+04   0.153446E+03   0.148000E+03
     1    92    77  -0.234339E+04  -0.448889E+03  -0.862459E+02  -0.930000E+02
     1    94    77  -0.234339E+04  -0.531656E+03  -0.950208E+02  -0.102000E+03
     1    94    73  -0.234339E+04  -0.613143E+03  -0.672365E+02  -0.740000E+02


 SOLVING FOR HEAD 
                                                   Max.-Head-Change                        Max.-Flux-Residual
  Residual-Control   Outer-Iter.   Inner-Iter.     Column Row Layer    Max.-Head-Change    Column Row Layer    Max.-Flux-Residual            L2-New               L2-Old           Solver-Max-Delh
          0                 1           3           213   83     1      -0.3341697763E+00     213   83    1      -0.8137679719E+03      0.9055176818E+04      0.4588977513E+02     -0.3341697763E+00
          0                 2           2           213   83     1       0.2885391160E-01     213   83    1       0.8135532913E+02      0.9053138479E+03      0.9055176818E+04      0.2885391160E-01

    ------------------------------------------------
       NWT REQUIRED            2 OUTER ITERATIONS 
       AND A TOTAL OF          5 INNER ITERATIONS.
    ------------------------------------------------

 NO OUTPUT CONTROL FOR STRESS PERIOD   55   TIME STEP    8

 WELLS WITH REDUCED PUMPING FOR STRESS PERIOD    55 TIME STEP     8
   LAY   ROW   COL         APPL.Q          ACT.Q        GW-HEAD       CELL-BOT
     1    77   213  -0.234339E+04  -0.997229E+03   0.153388E+03   0.148000E+03
     1    92    77  -0.234339E+04  -0.448878E+03  -0.862460E+02  -0.930000E+02
     1    94    77  -0.234339E+04  -0.524893E+03  -0.950719E+02  -0.102000E+03
     1    94    73  -0.234339E+04  -0.604742E+03  -0.672908E+02  -0.740000E+02


 SOLVING FOR HEAD 
                                                   Max.-Head-Change                        Max.-Flux-Residual
  Residual-Control   Outer-Iter.   Inner-Iter.     Column Row Layer    Max.-Head-Change    Column Row Layer    Max.-Flux-Residual            L2-New               L2-Old           Solver-Max-Delh
          0                 1           3           213   83     1      -0.3292814170E+00     213   83    1      -0.8017670545E+03      0.8943594316E+04      0.4526314185E+02     -0.3292814170E+00
          0                 2           2           213   83     1       0.2843186719E-01     213   83    1       0.8015569524E+02      0.8941966079E+03      0.8943594316E+04      0.2843186719E-01

    ------------------------------------------------
       NWT REQUIRED            2 OUTER ITERATIONS 
       AND A TOTAL OF          5 INNER ITERATIONS.
    ------------------------------------------------

 NO OUTPUT CONTROL FOR STRESS PERIOD   55   TIME STEP    9

 WELLS WITH REDUCED PUMPING FOR STRESS PERIOD    55 TIME STEP     9
   LAY   ROW   COL         APPL.Q          ACT.Q        GW-HEAD       CELL-BOT
     1    77   213  -0.234339E+04  -0.982099E+03   0.153336E+03   0.148000E+03
     1    92    77  -0.234339E+04  -0.448882E+03  -0.862459E+02  -0.930000E+02
     1    94    77  -0.234339E+04  -0.518480E+03  -0.951205E+02  -0.102000E+03
     1    94    73  -0.234339E+04  -0.596842E+03  -0.673419E+02  -0.740000E+02


 SOLVING FOR HEAD 
                                                   Max.-Head-Change                        Max.-Flux-Residual
  Residual-Control   Outer-Iter.   Inner-Iter.     Column Row Layer    Max.-Head-Change    Column Row Layer    Max.-Flux-Residual            L2-New               L2-Old           Solver-Max-Delh
          0                 1           3           213   83     1      -0.3244989112E+00     213   83    1      -0.7900270491E+03      0.8838379382E+04      0.4470845910E+02     -0.3244989112E+00
          0                 2           2           213   83     1       0.2801896169E-01     457  425    1       0.1200768269E+03      0.8918640962E+03      0.8838379382E+04      0.2801896169E-01

    ------------------------------------------------
       NWT REQUIRED            2 OUTER ITERATIONS 
       AND A TOTAL OF          5 INNER ITERATIONS.
    ------------------------------------------------

 OUTPUT CONTROL FOR STRESS PERIOD   55   TIME STEP   10
    SAVE HEAD FOR ALL LAYERS

 WELLS WITH REDUCED PUMPING FOR STRESS PERIOD    55 TIME STEP    10
   LAY   ROW   COL         APPL.Q          ACT.Q        GW-HEAD       CELL-BOT
     1    77   213  -0.234339E+04  -0.968507E+03   0.153289E+03   0.148000E+03
     1    92    77  -0.234339E+04  -0.448893E+03  -0.862458E+02  -0.930000E+02
     1    94    77  -0.234339E+04  -0.512396E+03  -0.951669E+02  -0.102000E+03
     1    94    73  -0.234339E+04  -0.589411E+03  -0.673903E+02  -0.740000E+02


 HEAD WILL BE SAVED ON UNIT   51 AT END OF TIME STEP   10, STRESS PERIOD   55
1
  VOLUMETRIC BUDGET FOR ENTIRE MODEL AT END OF TIME STEP   10, STRESS PERIOD  55
  ------------------------------------------------------------------------------

     CUMULATIVE VOLUMES      L**3       RATES FOR THIS TIME STEP      L**3/T
     ------------------                 ------------------------

           IN:                                      IN:
           ---                                      ---
             STORAGE =   559975104.0000               STORAGE =      411355.5625
       CONSTANT HEAD =    84711808.0000         CONSTANT HEAD =       52071.4531
               WELLS =           0.0000                 WELLS =           0.0000
              DRAINS =           0.0000                DRAINS =           0.0000
                  ET =           0.0000                    ET =           0.0000
            RECHARGE =   324455488.0000              RECHARGE =      136486.0781

            TOTAL IN =   969142400.0000              TOTAL IN =      599913.0625

          OUT:                                     OUT:
          ----                                     ----
             STORAGE =   188447488.0000               STORAGE =       11089.6377
       CONSTANT HEAD =           0.0000         CONSTANT HEAD =           0.0000
               WELLS =   509749184.0000                 WELLS =      437927.2812
              DRAINS =   190799664.0000                DRAINS =      107916.3672
                  ET =    78931544.0000                    ET =       40968.4883
            RECHARGE =       81860.0000              RECHARGE =           0.0000

           TOTAL OUT =   968009728.0000             TOTAL OUT =      597901.7500

            IN - OUT =     1132672.0000              IN - OUT =        2011.3125

 PERCENT DISCREPANCY =           0.12     PERCENT DISCREPANCY =           0.34






         TIME SUMMARY AT END OF TIME STEP   10 IN STRESS PERIOD   55
                    SECONDS     MINUTES      HOURS       DAYS        YEARS
                    -----------------------------------------------------------
   TIME STEP LENGTH 2.62656E+05  4377.6      72.960      3.0400     8.32307E-03
 STRESS PERIOD TIME 2.62656E+06  43776.      729.60      30.400     8.32307E-02
         TOTAL TIME 1.44461E+08 2.40769E+06  40128.      1672.0      4.5777    
1
1
                            STRESS PERIOD NO.   56, LENGTH =   30.40000    
                            -----------------------------------------------

                              NUMBER OF TIME STEPS =    10

                               MULTIPLIER FOR DELT =     1.000

                            INITIAL TIME STEP SIZE =   3.040000    

 WELL NO.  LAYER   ROW   COL   STRESS RATE         
 --------------------------------------------------
      1      1     69    225      -4752.    
      2      1     71    224       0.000    
      3      1     74    220       0.000    
      4      1     73    220       0.000    
      5      1     71    223       0.000    
      6      1     71    223       0.000    
      7      1     72    223       0.000    
      8      1     92    173       0.000    
      9      1     94    174       0.000    
     10      1     93    175       0.000    
     11      1    203    328       0.000    
     12      1    438    460      -0.000    
     13      1    436    461      -0.000    
     14      1    410    454      -0.000    
     15      1    433    460      -0.000    
     16      1    431    462      -0.000    
     17      1    417    459      -0.000    
     18      1    418    458      -0.000    
     19      1    414    455      -0.000    
     20      1    443    464      -0.000    
     21      1    379    425      -0.000    
     22      1    362    405      -0.000    
     23      1    361    405      -0.000    
     24      1    362    406      -0.000    
     25      1    363    408      -0.000    
     26      1    364    410      -0.000    
     27      1    369    418      -0.000    
     28      1    367    417      -0.000    
     29      1    365    415      -0.000    
     30      1    402    447      -0.000    
     31      1    400    446      -0.000    
     32      1    392    444      -0.000    
     33      1    391    441      -0.000    
     34      1    403    448      -0.000    
     35      1    405    447      -0.000    
     36      1    362    410      -0.000    
     37      1    362    411      -0.000    
     38      1    363    412      -0.000    
     39      1    375    421      -0.000    
     40      1    383    430      -0.000    
     41      1    397    445      -0.000    
     42      1    360    403      -0.000    
     43      1    350    401      -0.000    
     44      1    346    393      -49.88    
     45      1    333    387      -49.88    
     46      1    328    384      -49.88    
     47      1    326    383      -49.88    
     48      1    323    378      -49.88    
     49      1    321    378      -49.88    
     50      1    322    376      -49.88    
     51      1    316    374      -49.88    
     52      1    311    371      -49.88    
     53      1    307    369      -49.88    
     54      1    305    368      -49.88    
     55      1    303    368      -49.88    
     56      1    300    369      -49.88    
     57      1    293    364      -49.88    
     58      1    292    362      -49.88    
     59      1    278    350      -49.88    
     60      1    274    351      -49.88    
     61      1    273    350      -49.88    
     62      1    271    350      -49.88    
     63      1    267    348      -49.88    
     64      1    263    348      -49.88    
     65      1    263    348      -49.88    
     66      1    248    347      -49.88    
     67      1    243    342      -49.88    
     68      1    242    339      -49.88    
     69      1    238    341      -49.88    
     70      1    233    340      -49.88    
     71      1    232    340      -49.88    
     72      1    229    341      -49.88    
     73      1    227    341      -49.88    
     74      1    219    342      -49.88    
     75      1    219    336      -49.88    
     76      1    199    329      -49.88    
     77      1    191    332      -0.000    
     78      1    190    332      -0.000    
     79      1    130    310      -0.000    
     80      1    123    305      -0.000    
     81      1    104    289      -0.000    
     82      1     96    287      -510.6    
     83      1     95    284      -510.6    
     84      1     95    280      -510.6    
     85      1     93    276      -510.6    
     86      1     94    275      -510.6    
     87      1     90    277      -510.6    
     88      1     90    273      -510.6    
     89      1     86    271      -510.6    
     90      1     85    270      -510.6    
     91      1     84    265      -510.6    
     92      1     85    265      -510.6    
     93      1     84    264      -510.6    
     94      1     79    263      -510.6    
     95      1     79    263      -510.6    
     96      1     76    262      -510.6    
     97      1     73    257      -510.6    
     98      1     74    255      -510.6    
     99      1     71    255      -510.6    
    100      1     66    253      -510.6    
    101      1     68    252      -510.6    
    102      1     69    250      -510.6    
    103      1     65    248      -510.6    
    104      1     68    248      -510.6    
    105      1     69    247      -510.6    
    106      1     73    247      -510.6    
    107      1     64    246      -510.6    
    108      1     69    245      -510.6    
    109      1     72    245      -510.6    
    110      1     69    241      -510.6    
    111      1     73    238      -510.6    
    112      1     70    238      -510.6    
    113      1     76    263      -510.6    
    114      1     66    232      -620.9    
    115      1     69    229      -620.9    
    116      1     71    228      -620.9    
    117      1     69    227      -620.9    
    118      1     72    219      -620.9    
    119      1     72    218      -620.9    
    120      1     72    218      -620.9    
    121      1     73    217      -620.9    
    122      1     77    219      -620.9    
    123      1     78    219      -620.9    
    124      1     83    213      -620.9    
    125      1     77    213      -620.9    
    126      1     81    211      -620.9    
    127      1     81    210      -620.9    
    128      1     81    210      -620.9    
    129      1     82    208      -620.9    
    130      1     80    205      -620.9    
    131      1     86    202      -620.9    
    132      1     84    200      -620.9    
    133      1     89    200      -620.9    
    134      1     89    199      -620.9    
    135      1     88    199      -620.9    
    136      1     86    199      -620.9    
    137      1     85    199      -620.9    
    138      1     82    197      -620.9    
    139      1     86    197      -620.9    
    140      1     88    198      -620.9    
    141      1     90    192      -620.9    
    142      1     89    191      -620.9    
    143      1     84    192      -620.9    
    144      1     91    189      -620.9    
    145      1     92    185      -620.9    
    146      1     87    183      -620.9    
    147      1     92    182      -620.9    
    148      1     90    182      -620.9    
    149      1     88    179      -620.9    
    150      1     89    176      -620.9    
    151      1     92    172      -620.9    
    152      1     93    164      -620.9    
    153      1     94    162      -620.9    
    154      1    103    156      -620.9    
    155      1    103    156      -620.9    
    156      1     96    154      -620.9    
    157      1     97    153      -620.9    
    158      1    122    139      -620.9    
    159      1     92     77      -620.9    
    160      1     94     77      -620.9    
    161      1     94     73      -620.9    
    162      1     97    152      -620.9    
    163      1    118    337      -666.7    
    164      1    133    319      -2678.    
    165      1    131    320      -3951.    
    166      1    133    321      -2956.    
    167      1    161    329      -2141.    
    168      1    178    330      -551.0    
    169      1    163    330      -1122.    
    170      1    131    320      -2473.    
    171      1    129    315      -3937.    
    172      1    162    329      -1959.    
    173      1    131    311      -826.1    
    174      1    221    340      -1994.    
    175      1    220    340      -1034.    
    176      1    221    340      -667.7    
    177      1    137    322      -2082.    
    178      1    137    321      -1407.    
    179      1    185    329      -2012.    
    180      1    183    329      -1473.    
    181      1    175    329      -585.3    
    182      1     79    243      -1490.    
    183      1     77    245      -2414.    
    184      1    199    329      -1617.    
    185      1    198    330      -2514.    
    186      1    140    328      -972.1    
    187      1    143    327      -863.6    
    188      1    139    327      -1331.    

    188 WELLS

 REUSING NON-PARAMETER DRAINS FROM LAST STRESS PERIOD

   1061 DRAINS

 REUSING SURF FROM LAST STRESS PERIOD

 REUSING EVTR FROM LAST STRESS PERIOD

 REUSING EXDP FROM LAST STRESS PERIOD



                           RECHARGE
 READING ON UNIT   19 WITH FORMAT: (510E15.6)          

 SOLVING FOR HEAD 
                                                   Max.-Head-Change                        Max.-Flux-Residual
  Residual-Control   Outer-Iter.   Inner-Iter.     Column Row Layer    Max.-Head-Change    Column Row Layer    Max.-Flux-Residual            L2-New               L2-Old           Solver-Max-Delh
          0                 1           3           263   79     1       0.2018521237E+02     348  263    1       0.6960608671E+04      0.3247028319E+05      0.4696287525E+02      0.2018521237E+02
          0                 2           2           263   79     1      -0.1947731913E+01     348  263    1      -0.7970039032E+03      0.3364500734E+04      0.3247028319E+05     -0.1947731913E+01
          0                 3           2           263   79     1      -0.9975251990E-01     348  263    1      -0.4020809590E+02      0.1704613844E+03      0.3364500734E+04     -0.9975251990E-01

    ------------------------------------------------
       NWT REQUIRED            3 OUTER ITERATIONS 
       AND A TOTAL OF          7 INNER ITERATIONS.
    ------------------------------------------------

 NO OUTPUT CONTROL FOR STRESS PERIOD   56   TIME STEP    1

 WELLS WITH REDUCED PUMPING FOR STRESS PERIOD    56 TIME STEP     1
   LAY   ROW   COL         APPL.Q          ACT.Q        GW-HEAD       CELL-BOT
     1    77   213  -0.620891E+03  -0.272589E+03   0.153496E+03   0.148000E+03
     1    92    77  -0.620891E+03  -0.179410E+03  -0.844370E+02  -0.930000E+02
     1    94    77  -0.620891E+03  -0.138783E+03  -0.950802E+02  -0.102000E+03
     1    94    73  -0.620891E+03  -0.160481E+03  -0.672846E+02  -0.740000E+02


 SOLVING FOR HEAD 
                                                   Max.-Head-Change                        Max.-Flux-Residual
  Residual-Control   Outer-Iter.   Inner-Iter.     Column Row Layer    Max.-Head-Change    Column Row Layer    Max.-Flux-Residual            L2-New               L2-Old           Solver-Max-Delh
          0                 1           3           263   79     1       0.8375047753E+01     393  346    1       0.2892106043E+04      0.1441140797E+05      0.1704613844E+03      0.8375047753E+01
          0                 2           2           263   79     1      -0.7755469765E+00     393  346    1      -0.2893942953E+03      0.1454167908E+04      0.1441140797E+05     -0.7755469765E+00
          0                 3           2           263   79     1      -0.3936073253E-01     263   79    1      -0.1449417987E+02      0.7279261832E+02      0.1454167908E+04     -0.3936073253E-01

    ------------------------------------------------
       NWT REQUIRED            3 OUTER ITERATIONS 
       AND A TOTAL OF          7 INNER ITERATIONS.
    ------------------------------------------------

 NO OUTPUT CONTROL FOR STRESS PERIOD   56   TIME STEP    2

 WELLS WITH REDUCED PUMPING FOR STRESS PERIOD    56 TIME STEP     2
   LAY   ROW   COL         APPL.Q          ACT.Q        GW-HEAD       CELL-BOT
     1    77   213  -0.620891E+03  -0.288096E+03   0.153696E+03   0.148000E+03
     1    92    77  -0.620891E+03  -0.230182E+03  -0.830467E+02  -0.930000E+02
     1    94    77  -0.620891E+03  -0.141782E+03  -0.949947E+02  -0.102000E+03
     1    94    73  -0.620891E+03  -0.164755E+03  -0.671807E+02  -0.740000E+02


 SOLVING FOR HEAD 
                                                   Max.-Head-Change                        Max.-Flux-Residual
  Residual-Control   Outer-Iter.   Inner-Iter.     Column Row Layer    Max.-Head-Change    Column Row Layer    Max.-Flux-Residual            L2-New               L2-Old           Solver-Max-Delh
          0                 1           3           263   79     1       0.3746193994E+01     393  346    1       0.2504707155E+04      0.1065993168E+05      0.7279261832E+02      0.3746193994E+01
          0                 2           2           263   79     1      -0.3436587700E+00     393  346    1      -0.2506342354E+03      0.1075692938E+04      0.1065993168E+05     -0.3436587700E+00
          0                 3           2           263   79     1      -0.1733245699E-01     393  346    1      -0.1253292593E+02      0.5378704212E+02      0.1075692938E+04     -0.1733245699E-01

    ------------------------------------------------
       NWT REQUIRED            3 OUTER ITERATIONS 
       AND A TOTAL OF          7 INNER ITERATIONS.
    ------------------------------------------------

 NO OUTPUT CONTROL FOR STRESS PERIOD   56   TIME STEP    3

 WELLS WITH REDUCED PUMPING FOR STRESS PERIOD    56 TIME STEP     3
   LAY   ROW   COL         APPL.Q          ACT.Q        GW-HEAD       CELL-BOT
     1    77   213  -0.620891E+03  -0.303105E+03   0.153889E+03   0.148000E+03
     1    92    77  -0.620891E+03  -0.270419E+03  -0.819868E+02  -0.930000E+02
     1    94    77  -0.620891E+03  -0.144757E+03  -0.949105E+02  -0.102000E+03
     1    94    73  -0.620891E+03  -0.168987E+03  -0.670786E+02  -0.740000E+02


 SOLVING FOR HEAD 
                                                   Max.-Head-Change                        Max.-Flux-Residual
  Residual-Control   Outer-Iter.   Inner-Iter.     Column Row Layer    Max.-Head-Change    Column Row Layer    Max.-Flux-Residual            L2-New               L2-Old           Solver-Max-Delh
          0                 1           3           263   79     1       0.1835178763E+01     374  316    1       0.2190904019E+04      0.8803955336E+04      0.5378704212E+02      0.1835178763E+01
          0                 2           2           263   79     1      -0.1616158417E+00     374  316    1      -0.2191866629E+03      0.8818031048E+03      0.8803955336E+04     -0.1616158417E+00
          0                 3           2           457  453     1       0.1527937436E-01     374  316    1      -0.1096004639E+02      0.4412392606E+02      0.8818031048E+03      0.1527937436E-01

    ------------------------------------------------
       NWT REQUIRED            3 OUTER ITERATIONS 
       AND A TOTAL OF          7 INNER ITERATIONS.
    ------------------------------------------------

 NO OUTPUT CONTROL FOR STRESS PERIOD   56   TIME STEP    4

 WELLS WITH REDUCED PUMPING FOR STRESS PERIOD    56 TIME STEP     4
   LAY   ROW   COL         APPL.Q          ACT.Q        GW-HEAD       CELL-BOT
     1    77   213  -0.620891E+03  -0.317601E+03   0.154076E+03   0.148000E+03
     1    92    77  -0.620891E+03  -0.301450E+03  -0.811811E+02  -0.930000E+02
     1    94    77  -0.620891E+03  -0.147708E+03  -0.948275E+02  -0.102000E+03
     1    94    73  -0.620891E+03  -0.173175E+03  -0.669782E+02  -0.740000E+02


 SOLVING FOR HEAD 
                                                   Max.-Head-Change                        Max.-Flux-Residual
  Residual-Control   Outer-Iter.   Inner-Iter.     Column Row Layer    Max.-Head-Change    Column Row Layer    Max.-Flux-Residual            L2-New               L2-Old           Solver-Max-Delh
          0                 1           3           264   78     1       0.1138671971E+01     374  316    1       0.1957647730E+04      0.7649610607E+04      0.4412392606E+02      0.1138671971E+01
          0                 2           2           264   78     1      -0.9988281178E-01     374  316    1      -0.1958569874E+03      0.7672591716E+03      0.7649610607E+04     -0.9988281178E-01

    ------------------------------------------------
       NWT REQUIRED            2 OUTER ITERATIONS 
       AND A TOTAL OF          5 INNER ITERATIONS.
    ------------------------------------------------

 NO OUTPUT CONTROL FOR STRESS PERIOD   56   TIME STEP    5

 WELLS WITH REDUCED PUMPING FOR STRESS PERIOD    56 TIME STEP     5
   LAY   ROW   COL         APPL.Q          ACT.Q        GW-HEAD       CELL-BOT
     1    77   213  -0.620891E+03  -0.331639E+03   0.154256E+03   0.148000E+03
     1    92    77  -0.620891E+03  -0.325195E+03  -0.805664E+02  -0.930000E+02
     1    94    77  -0.620891E+03  -0.150646E+03  -0.947454E+02  -0.102000E+03
     1    94    73  -0.620891E+03  -0.177339E+03  -0.668792E+02  -0.740000E+02


 SOLVING FOR HEAD 
                                                   Max.-Head-Change                        Max.-Flux-Residual
  Residual-Control   Outer-Iter.   Inner-Iter.     Column Row Layer    Max.-Head-Change    Column Row Layer    Max.-Flux-Residual            L2-New               L2-Old           Solver-Max-Delh
          0                 1           3           264   78     1       0.9563491015E+00     378  321    1       0.1756510492E+04      0.6839621180E+04      0.3836785178E+02      0.9563491015E+00
          0                 2           2           264   78     1      -0.8389883766E-01     378  321    1      -0.1757540981E+03      0.6844105046E+03      0.6839621180E+04     -0.8389883766E-01

    ------------------------------------------------
       NWT REQUIRED            2 OUTER ITERATIONS 
       AND A TOTAL OF          5 INNER ITERATIONS.
    ------------------------------------------------

 NO OUTPUT CONTROL FOR STRESS PERIOD   56   TIME STEP    6

 WELLS WITH REDUCED PUMPING FOR STRESS PERIOD    56 TIME STEP     6
   LAY   ROW   COL         APPL.Q          ACT.Q        GW-HEAD       CELL-BOT
     1    77   213  -0.620891E+03  -0.345146E+03   0.154430E+03   0.148000E+03
     1    92    77  -0.620891E+03  -0.343157E+03  -0.801003E+02  -0.930000E+02
     1    94    77  -0.620891E+03  -0.153558E+03  -0.946644E+02  -0.102000E+03
     1    94    73  -0.620891E+03  -0.181455E+03  -0.667818E+02  -0.740000E+02


 SOLVING FOR HEAD 
                                                   Max.-Head-Change                        Max.-Flux-Residual
  Residual-Control   Outer-Iter.   Inner-Iter.     Column Row Layer    Max.-Head-Change    Column Row Layer    Max.-Flux-Residual            L2-New               L2-Old           Solver-Max-Delh
          0                 1           3           264   78     1       0.7885025330E+00     378  321    1       0.1599717559E+04      0.6237978668E+04      0.3425716200E+02      0.7885025330E+00
          0                 2           2           264   78     1      -0.6903973903E-01     378  321    1      -0.1600727966E+03      0.6244828199E+03      0.6237978668E+04     -0.6903973903E-01

    ------------------------------------------------
       NWT REQUIRED            2 OUTER ITERATIONS 
       AND A TOTAL OF          5 INNER ITERATIONS.
    ------------------------------------------------

 NO OUTPUT CONTROL FOR STRESS PERIOD   56   TIME STEP    7

 WELLS WITH REDUCED PUMPING FOR STRESS PERIOD    56 TIME STEP     7
   LAY   ROW   COL         APPL.Q          ACT.Q        GW-HEAD       CELL-BOT
     1    77   213  -0.620891E+03  -0.358121E+03   0.154598E+03   0.148000E+03
     1    92    77  -0.620891E+03  -0.356718E+03  -0.797468E+02  -0.930000E+02
     1    94    77  -0.620891E+03  -0.156443E+03  -0.945847E+02  -0.102000E+03
     1    94    73  -0.620891E+03  -0.185523E+03  -0.666861E+02  -0.740000E+02


 SOLVING FOR HEAD 
                                                   Max.-Head-Change                        Max.-Flux-Residual
  Residual-Control   Outer-Iter.   Inner-Iter.     Column Row Layer    Max.-Head-Change    Column Row Layer    Max.-Flux-Residual            L2-New               L2-Old           Solver-Max-Delh
          0                 1           3           343  217     1       0.6995010242E+00     378  321    1       0.1460784885E+04      0.5770790909E+04      0.3122583838E+02      0.6995010242E+00
          0                 2           2           343  217     1      -0.6084011226E-01     378  321    1      -0.1461748252E+03      0.5770799566E+03      0.5770790909E+04     -0.6084011226E-01

    ------------------------------------------------
       NWT REQUIRED            2 OUTER ITERATIONS 
       AND A TOTAL OF          5 INNER ITERATIONS.
    ------------------------------------------------

 NO OUTPUT CONTROL FOR STRESS PERIOD   56   TIME STEP    8

 WELLS WITH REDUCED PUMPING FOR STRESS PERIOD    56 TIME STEP     8
   LAY   ROW   COL         APPL.Q          ACT.Q        GW-HEAD       CELL-BOT
     1    77   213  -0.620891E+03  -0.370568E+03   0.154761E+03   0.148000E+03
     1    92    77  -0.620891E+03  -0.366952E+03  -0.794786E+02  -0.930000E+02
     1    94    77  -0.620891E+03  -0.159300E+03  -0.945062E+02  -0.102000E+03
     1    94    73  -0.620891E+03  -0.189541E+03  -0.665922E+02  -0.740000E+02


 SOLVING FOR HEAD 
                                                   Max.-Head-Change                        Max.-Flux-Residual
  Residual-Control   Outer-Iter.   Inner-Iter.     Column Row Layer    Max.-Head-Change    Column Row Layer    Max.-Flux-Residual            L2-New               L2-Old           Solver-Max-Delh
          0                 1           3           343  217     1       0.6524403297E+00     378  321    1       0.1337288181E+04      0.5398154231E+04      0.2885643999E+02      0.6524403297E+00
          0                 2           2           343  217     1      -0.5672686245E-01     378  321    1      -0.1338190321E+03      0.5399840571E+03      0.5398154231E+04     -0.5672686245E-01

    ------------------------------------------------
       NWT REQUIRED            2 OUTER ITERATIONS 
       AND A TOTAL OF          5 INNER ITERATIONS.
    ------------------------------------------------

 NO OUTPUT CONTROL FOR STRESS PERIOD   56   TIME STEP    9

 WELLS WITH REDUCED PUMPING FOR STRESS PERIOD    56 TIME STEP     9
   LAY   ROW   COL         APPL.Q          ACT.Q        GW-HEAD       CELL-BOT
     1    77   213  -0.620891E+03  -0.382497E+03   0.154917E+03   0.148000E+03
     1    92    77  -0.620891E+03  -0.374674E+03  -0.792753E+02  -0.930000E+02
     1    94    77  -0.620891E+03  -0.162129E+03  -0.944289E+02  -0.102000E+03
     1    94    73  -0.620891E+03  -0.193509E+03  -0.664999E+02  -0.740000E+02


 SOLVING FOR HEAD 
                                                   Max.-Head-Change                        Max.-Flux-Residual
  Residual-Control   Outer-Iter.   Inner-Iter.     Column Row Layer    Max.-Head-Change    Column Row Layer    Max.-Flux-Residual            L2-New               L2-Old           Solver-Max-Delh
          0                 1           3           343  217     1       0.6037540653E+00     378  321    1       0.1227196064E+04      0.5094170709E+04      0.2700270577E+02      0.6037540653E+00
          0                 2           2           343  217     1      -0.5247018946E-01     378  321    1      -0.1228030754E+03      0.5095870185E+03      0.5094170709E+04     -0.5247018946E-01

    ------------------------------------------------
       NWT REQUIRED            2 OUTER ITERATIONS 
       AND A TOTAL OF          5 INNER ITERATIONS.
    ------------------------------------------------

 OUTPUT CONTROL FOR STRESS PERIOD   56   TIME STEP   10
    SAVE HEAD FOR ALL LAYERS

 WELLS WITH REDUCED PUMPING FOR STRESS PERIOD    56 TIME STEP    10
   LAY   ROW   COL         APPL.Q          ACT.Q        GW-HEAD       CELL-BOT
     1    77   213  -0.620891E+03  -0.393917E+03   0.155068E+03   0.148000E+03
     1    92    77  -0.620891E+03  -0.380498E+03  -0.791213E+02  -0.930000E+02
     1    94    77  -0.620891E+03  -0.164928E+03  -0.943528E+02  -0.102000E+03
     1    94    73  -0.620891E+03  -0.197425E+03  -0.664093E+02  -0.740000E+02


 HEAD WILL BE SAVED ON UNIT   51 AT END OF TIME STEP   10, STRESS PERIOD   56
1
  VOLUMETRIC BUDGET FOR ENTIRE MODEL AT END OF TIME STEP   10, STRESS PERIOD  56
  ------------------------------------------------------------------------------

     CUMULATIVE VOLUMES      L**3       RATES FOR THIS TIME STEP      L**3/T
     ------------------                 ------------------------

           IN:                                      IN:
           ---                                      ---
             STORAGE =   566020992.0000               STORAGE =      164809.1875
       CONSTANT HEAD =    86294904.0000         CONSTANT HEAD =       52078.8867
               WELLS =           0.0000                 WELLS =           0.0000
              DRAINS =           0.0000                DRAINS =           0.0000
                  ET =           0.0000                    ET =           0.0000
            RECHARGE =   327931648.0000              RECHARGE =      114347.0078

            TOTAL IN =   980247552.0000              TOTAL IN =      331235.0938

          OUT:                                     OUT:
          ----                                     ----
             STORAGE =   191961152.0000               STORAGE =       78251.0156
       CONSTANT HEAD =           0.0000         CONSTANT HEAD =           0.0000
               WELLS =   512680256.0000                 WELLS =       96571.3750
              DRAINS =   194186496.0000                DRAINS =      113672.1484
                  ET =    80197328.0000                    ET =       42312.6289
            RECHARGE =       81860.0000              RECHARGE =           0.0000

           TOTAL OUT =   979107072.0000             TOTAL OUT =      330807.1562

            IN - OUT =     1140480.0000              IN - OUT =         427.9375

 PERCENT DISCREPANCY =           0.12     PERCENT DISCREPANCY =           0.13






         TIME SUMMARY AT END OF TIME STEP   10 IN STRESS PERIOD   56
                    SECONDS     MINUTES      HOURS       DAYS        YEARS
                    -----------------------------------------------------------
   TIME STEP LENGTH 2.62656E+05  4377.6      72.960      3.0400     8.32307E-03
 STRESS PERIOD TIME 2.62656E+06  43776.      729.60      30.400     8.32307E-02
         TOTAL TIME 1.47088E+08 2.45146E+06  40858.      1702.4      4.6609    
1
1
                            STRESS PERIOD NO.   57, LENGTH =   30.40000    
                            -----------------------------------------------

                              NUMBER OF TIME STEPS =    10

                               MULTIPLIER FOR DELT =     1.000

                            INITIAL TIME STEP SIZE =   3.040000    

 WELL NO.  LAYER   ROW   COL   STRESS RATE         
 --------------------------------------------------
      1      1     69    225      -4838.    
      2      1     71    224       0.000    
      3      1     74    220       0.000    
      4      1     73    220       0.000    
      5      1     71    223       0.000    
      6      1     71    223       0.000    
      7      1     72    223       0.000    
      8      1     92    173       0.000    
      9      1     94    174       0.000    
     10      1     93    175       0.000    
     11      1    203    328       0.000    
     12      1    438    460      -550.5    
     13      1    436    461      -550.5    
     14      1    410    454      -550.5    
     15      1    433    460      -550.5    
     16      1    431    462      -550.5    
     17      1    417    459      -550.5    
     18      1    418    458      -550.5    
     19      1    414    455      -550.5    
     20      1    443    464      -550.5    
     21      1    379    425      -550.5    
     22      1    362    405      -550.5    
     23      1    361    405      -550.5    
     24      1    362    406      -550.5    
     25      1    363    408      -550.5    
     26      1    364    410      -550.5    
     27      1    369    418      -550.5    
     28      1    367    417      -550.5    
     29      1    365    415      -550.5    
     30      1    402    447      -550.5    
     31      1    400    446      -550.5    
     32      1    392    444      -550.5    
     33      1    391    441      -550.5    
     34      1    403    448      -550.5    
     35      1    405    447      -550.5    
     36      1    362    410      -550.5    
     37      1    362    411      -550.5    
     38      1    363    412      -550.5    
     39      1    375    421      -550.5    
     40      1    383    430      -550.5    
     41      1    397    445      -550.5    
     42      1    360    403      -550.5    
     43      1    350    401      -550.5    
     44      1    346    393      -613.1    
     45      1    333    387      -613.1    
     46      1    328    384      -613.1    
     47      1    326    383      -613.1    
     48      1    323    378      -613.1    
     49      1    321    378      -613.1    
     50      1    322    376      -613.1    
     51      1    316    374      -613.1    
     52      1    311    371      -613.1    
     53      1    307    369      -613.1    
     54      1    305    368      -613.1    
     55      1    303    368      -613.1    
     56      1    300    369      -613.1    
     57      1    293    364      -613.1    
     58      1    292    362      -613.1    
     59      1    278    350      -613.1    
     60      1    274    351      -613.1    
     61      1    273    350      -613.1    
     62      1    271    350      -613.1    
     63      1    267    348      -613.1    
     64      1    263    348      -613.1    
     65      1    263    348      -613.1    
     66      1    248    347      -613.1    
     67      1    243    342      -613.1    
     68      1    242    339      -613.1    
     69      1    238    341      -613.1    
     70      1    233    340      -613.1    
     71      1    232    340      -613.1    
     72      1    229    341      -613.1    
     73      1    227    341      -613.1    
     74      1    219    342      -613.1    
     75      1    219    336      -613.1    
     76      1    199    329      -613.1    
     77      1    191    332      -722.1    
     78      1    190    332      -722.1    
     79      1    130    310      -722.1    
     80      1    123    305      -722.1    
     81      1    104    289      -722.1    
     82      1     96    287      -1045.    
     83      1     95    284      -1045.    
     84      1     95    280      -1045.    
     85      1     93    276      -1045.    
     86      1     94    275      -1045.    
     87      1     90    277      -1045.    
     88      1     90    273      -1045.    
     89      1     86    271      -1045.    
     90      1     85    270      -1045.    
     91      1     84    265      -1045.    
     92      1     85    265      -1045.    
     93      1     84    264      -1045.    
     94      1     79    263      -1045.    
     95      1     79    263      -1045.    
     96      1     76    262      -1045.    
     97      1     73    257      -1045.    
     98      1     74    255      -1045.    
     99      1     71    255      -1045.    
    100      1     66    253      -1045.    
    101      1     68    252      -1045.    
    102      1     69    250      -1045.    
    103      1     65    248      -1045.    
    104      1     68    248      -1045.    
    105      1     69    247      -1045.    
    106      1     73    247      -1045.    
    107      1     64    246      -1045.    
    108      1     69    245      -1045.    
    109      1     72    245      -1045.    
    110      1     69    241      -1045.    
    111      1     73    238      -1045.    
    112      1     70    238      -1045.    
    113      1     76    263      -1045.    
    114      1     66    232      -728.1    
    115      1     69    229      -728.1    
    116      1     71    228      -728.1    
    117      1     69    227      -728.1    
    118      1     72    219      -728.1    
    119      1     72    218      -728.1    
    120      1     72    218      -728.1    
    121      1     73    217      -728.1    
    122      1     77    219      -728.1    
    123      1     78    219      -728.1    
    124      1     83    213      -728.1    
    125      1     77    213      -728.1    
    126      1     81    211      -728.1    
    127      1     81    210      -728.1    
    128      1     81    210      -728.1    
    129      1     82    208      -728.1    
    130      1     80    205      -728.1    
    131      1     86    202      -728.1    
    132      1     84    200      -728.1    
    133      1     89    200      -728.1    
    134      1     89    199      -728.1    
    135      1     88    199      -728.1    
    136      1     86    199      -728.1    
    137      1     85    199      -728.1    
    138      1     82    197      -728.1    
    139      1     86    197      -728.1    
    140      1     88    198      -728.1    
    141      1     90    192      -728.1    
    142      1     89    191      -728.1    
    143      1     84    192      -728.1    
    144      1     91    189      -728.1    
    145      1     92    185      -728.1    
    146      1     87    183      -728.1    
    147      1     92    182      -728.1    
    148      1     90    182      -728.1    
    149      1     88    179      -728.1    
    150      1     89    176      -728.1    
    151      1     92    172      -728.1    
    152      1     93    164      -728.1    
    153      1     94    162      -728.1    
    154      1    103    156      -728.1    
    155      1    103    156      -728.1    
    156      1     96    154      -728.1    
    157      1     97    153      -728.1    
    158      1    122    139      -728.1    
    159      1     92     77      -728.1    
    160      1     94     77      -728.1    
    161      1     94     73      -728.1    
    162      1     97    152      -728.1    
    163      1    118    337      -666.7    
    164      1    133    319      -2678.    
    165      1    131    320      -3951.    
    166      1    133    321      -2956.    
    167      1    161    329      -2141.    
    168      1    178    330      -551.0    
    169      1    163    330      -1122.    
    170      1    131    320      -2473.    
    171      1    129    315      -3937.    
    172      1    162    329      -1959.    
    173      1    131    311      -826.1    
    174      1    221    340      -1994.    
    175      1    220    340      -1034.    
    176      1    221    340      -667.7    
    177      1    137    322      -2082.    
    178      1    137    321      -1407.    
    179      1    185    329      -2012.    
    180      1    183    329      -1473.    
    181      1    175    329      -585.3    
    182      1     79    243      -1490.    
    183      1     77    245      -2414.    
    184      1    199    329      -1617.    
    185      1    198    330      -2514.    
    186      1    140    328      -972.1    
    187      1    143    327      -863.6    
    188      1    139    327      -1331.    

    188 WELLS

 REUSING NON-PARAMETER DRAINS FROM LAST STRESS PERIOD

   1061 DRAINS

 REUSING SURF FROM LAST STRESS PERIOD

 REUSING EVTR FROM LAST STRESS PERIOD

 REUSING EXDP FROM LAST STRESS PERIOD



                           RECHARGE
 READING ON UNIT   19 WITH FORMAT: (510E15.6)          

 SOLVING FOR HEAD 
                                                   Max.-Head-Change                        Max.-Flux-Residual
  Residual-Control   Outer-Iter.   Inner-Iter.     Column Row Layer    Max.-Head-Change    Column Row Layer    Max.-Flux-Residual            L2-New               L2-Old           Solver-Max-Delh
          0                 1           3           263   79     1      -0.2965506818E+01     348  263    1      -0.1074637639E+04      0.6553025617E+04      0.2548001503E+02     -0.2965506818E+01
          0                 2           2           263   79     1       0.2510535223E+00     348  263    1       0.1069121776E+03      0.6563612382E+03      0.6553025617E+04      0.2510535223E+00
          0                 3           2           457  453     1       0.1532360345E-01     348  263    1       0.5341527760E+01      0.3281355389E+02      0.6563612382E+03      0.1532360345E-01

    ------------------------------------------------
       NWT REQUIRED            3 OUTER ITERATIONS 
       AND A TOTAL OF          7 INNER ITERATIONS.
    ------------------------------------------------

 NO OUTPUT CONTROL FOR STRESS PERIOD   57   TIME STEP    1

 WELLS WITH REDUCED PUMPING FOR STRESS PERIOD    57 TIME STEP     1
   LAY   ROW   COL         APPL.Q          ACT.Q        GW-HEAD       CELL-BOT
     1    77   213  -0.728135E+03  -0.472517E+03   0.155188E+03   0.148000E+03
     1    92    77  -0.728135E+03  -0.435391E+03  -0.793652E+02  -0.930000E+02
     1    94    77  -0.728135E+03  -0.196203E+03  -0.942884E+02  -0.102000E+03
     1    94    73  -0.728135E+03  -0.235404E+03  -0.663331E+02  -0.740000E+02


 SOLVING FOR HEAD 
                                                   Max.-Head-Change                        Max.-Flux-Residual
  Residual-Control   Outer-Iter.   Inner-Iter.     Column Row Layer    Max.-Head-Change    Column Row Layer    Max.-Flux-Residual            L2-New               L2-Old           Solver-Max-Delh
          0                 1           3           263   79     1      -0.1154044407E+01     139  122    1       0.6702044979E+03      0.4173075368E+04      0.3281355389E+02     -0.1154044407E+01
          0                 2           2           263   79     1       0.9920268136E-01     139  122    1      -0.6703041622E+02      0.4182991658E+03      0.4173075368E+04      0.9920268136E-01

    ------------------------------------------------
       NWT REQUIRED            2 OUTER ITERATIONS 
       AND A TOTAL OF          5 INNER ITERATIONS.
    ------------------------------------------------

 NO OUTPUT CONTROL FOR STRESS PERIOD   57   TIME STEP    2

 WELLS WITH REDUCED PUMPING FOR STRESS PERIOD    57 TIME STEP     2
   LAY   ROW   COL         APPL.Q          ACT.Q        GW-HEAD       CELL-BOT
     1    77   213  -0.728135E+03  -0.482628E+03   0.155304E+03   0.148000E+03
     1    92    77  -0.728135E+03  -0.427275E+03  -0.795471E+02  -0.930000E+02
     1    94    77  -0.728135E+03  -0.198965E+03  -0.942249E+02  -0.102000E+03
     1    94    73  -0.728135E+03  -0.239234E+03  -0.662581E+02  -0.740000E+02


 SOLVING FOR HEAD 
                                                   Max.-Head-Change                        Max.-Flux-Residual
  Residual-Control   Outer-Iter.   Inner-Iter.     Column Row Layer    Max.-Head-Change    Column Row Layer    Max.-Flux-Residual            L2-New               L2-Old           Solver-Max-Delh
          0                 1           3           263   79     1      -0.4532593756E+00     197   82    1       0.6523245039E+03      0.3741602447E+04      0.4182991658E+03     -0.4532593756E+00
          0                 2           2           263   79     1       0.3911853632E-01     197   82    1      -0.6524092675E+02      0.3745890963E+03      0.3741602447E+04      0.3911853632E-01

    ------------------------------------------------
       NWT REQUIRED            2 OUTER ITERATIONS 
       AND A TOTAL OF          5 INNER ITERATIONS.
    ------------------------------------------------

 NO OUTPUT CONTROL FOR STRESS PERIOD   57   TIME STEP    3

 WELLS WITH REDUCED PUMPING FOR STRESS PERIOD    57 TIME STEP     3
   LAY   ROW   COL         APPL.Q          ACT.Q        GW-HEAD       CELL-BOT
     1    77   213  -0.728135E+03  -0.492258E+03   0.155416E+03   0.148000E+03
     1    92    77  -0.728135E+03  -0.421230E+03  -0.796821E+02  -0.930000E+02
     1    94    77  -0.728135E+03  -0.201688E+03  -0.941625E+02  -0.102000E+03
     1    94    73  -0.728135E+03  -0.242997E+03  -0.661847E+02  -0.740000E+02


 SOLVING FOR HEAD 
                                                   Max.-Head-Change                        Max.-Flux-Residual
  Residual-Control   Outer-Iter.   Inner-Iter.     Column Row Layer    Max.-Head-Change    Column Row Layer    Max.-Flux-Residual            L2-New               L2-Old           Solver-Max-Delh
          0                 1           3           343  217     1       0.2728982332E+00     197   82    1       0.6414036760E+03      0.3526447379E+04      0.3745890963E+03      0.2728982332E+00
          0                 2           2           343  217     1      -0.2364115851E-01     197   82    1      -0.6414861207E+02      0.3526553567E+03      0.3526447379E+04     -0.2364115851E-01

    ------------------------------------------------
       NWT REQUIRED            2 OUTER ITERATIONS 
       AND A TOTAL OF          5 INNER ITERATIONS.
    ------------------------------------------------

 NO OUTPUT CONTROL FOR STRESS PERIOD   57   TIME STEP    4

 WELLS WITH REDUCED PUMPING FOR STRESS PERIOD    57 TIME STEP     4
   LAY   ROW   COL         APPL.Q          ACT.Q        GW-HEAD       CELL-BOT
     1    77   213  -0.728135E+03  -0.501428E+03   0.155523E+03   0.148000E+03
     1    92    77  -0.728135E+03  -0.416722E+03  -0.797827E+02  -0.930000E+02
     1    94    77  -0.728135E+03  -0.204372E+03  -0.941013E+02  -0.102000E+03
     1    94    73  -0.728135E+03  -0.246694E+03  -0.661129E+02  -0.740000E+02


 SOLVING FOR HEAD 
                                                   Max.-Head-Change                        Max.-Flux-Residual
  Residual-Control   Outer-Iter.   Inner-Iter.     Column Row Layer    Max.-Head-Change    Column Row Layer    Max.-Flux-Residual            L2-New               L2-Old           Solver-Max-Delh
          0                 1           3           197   82     1       0.2585679831E+00     197   82    1       0.6306812397E+03      0.3385242808E+04      0.3526553567E+03      0.2585679831E+00
          0                 2           2           197   82     1      -0.2233319560E-01     197   82    1      -0.6307615061E+02      0.3385377536E+03      0.3385242808E+04     -0.2233319560E-01

    ------------------------------------------------
       NWT REQUIRED            2 OUTER ITERATIONS 
       AND A TOTAL OF          5 INNER ITERATIONS.
    ------------------------------------------------

 NO OUTPUT CONTROL FOR STRESS PERIOD   57   TIME STEP    5

 WELLS WITH REDUCED PUMPING FOR STRESS PERIOD    57 TIME STEP     5
   LAY   ROW   COL         APPL.Q          ACT.Q        GW-HEAD       CELL-BOT
     1    77   213  -0.728135E+03  -0.510160E+03   0.155626E+03   0.148000E+03
     1    92    77  -0.728135E+03  -0.413347E+03  -0.798578E+02  -0.930000E+02
     1    94    77  -0.728135E+03  -0.207017E+03  -0.940411E+02  -0.102000E+03
     1    94    73  -0.728135E+03  -0.250325E+03  -0.660425E+02  -0.740000E+02


 SOLVING FOR HEAD 
                                                   Max.-Head-Change                        Max.-Flux-Residual
  Residual-Control   Outer-Iter.   Inner-Iter.     Column Row Layer    Max.-Head-Change    Column Row Layer    Max.-Flux-Residual            L2-New               L2-Old           Solver-Max-Delh
          0                 1           3           197   82     1       0.2542584061E+00     197   82    1       0.6201567876E+03      0.3280329191E+04      0.3385377536E+03      0.2542584061E+00
          0                 2           2           197   82     1      -0.2196094720E-01     197   82    1      -0.6202349655E+02      0.3280326470E+03      0.3280329191E+04     -0.2196094720E-01

    ------------------------------------------------
       NWT REQUIRED            2 OUTER ITERATIONS 
       AND A TOTAL OF          5 INNER ITERATIONS.
    ------------------------------------------------

 NO OUTPUT CONTROL FOR STRESS PERIOD   57   TIME STEP    6

 WELLS WITH REDUCED PUMPING FOR STRESS PERIOD    57 TIME STEP     6
   LAY   ROW   COL         APPL.Q          ACT.Q        GW-HEAD       CELL-BOT
     1    77   213  -0.728135E+03  -0.518472E+03   0.155725E+03   0.148000E+03
     1    92    77  -0.728135E+03  -0.410809E+03  -0.799143E+02  -0.930000E+02
     1    94    77  -0.728135E+03  -0.209623E+03  -0.939821E+02  -0.102000E+03
     1    94    73  -0.728135E+03  -0.253890E+03  -0.659737E+02  -0.740000E+02


 SOLVING FOR HEAD 
                                                   Max.-Head-Change                        Max.-Flux-Residual
  Residual-Control   Outer-Iter.   Inner-Iter.     Column Row Layer    Max.-Head-Change    Column Row Layer    Max.-Flux-Residual            L2-New               L2-Old           Solver-Max-Delh
          0                 1           3           197   82     1       0.2500290952E+00     197   82    1       0.6098277981E+03      0.3196341361E+04      0.3280326470E+03      0.2500290952E+00
          0                 2           2           197   82     1      -0.2159562965E-01     197   82    1      -0.6099039564E+02      0.3196283370E+03      0.3196341361E+04     -0.2159562965E-01

    ------------------------------------------------
       NWT REQUIRED            2 OUTER ITERATIONS 
       AND A TOTAL OF          5 INNER ITERATIONS.
    ------------------------------------------------

 NO OUTPUT CONTROL FOR STRESS PERIOD   57   TIME STEP    7

 WELLS WITH REDUCED PUMPING FOR STRESS PERIOD    57 TIME STEP     7
   LAY   ROW   COL         APPL.Q          ACT.Q        GW-HEAD       CELL-BOT
     1    77   213  -0.728135E+03  -0.526385E+03   0.155820E+03   0.148000E+03
     1    92    77  -0.728135E+03  -0.408886E+03  -0.799570E+02  -0.930000E+02
     1    94    77  -0.728135E+03  -0.212191E+03  -0.939241E+02  -0.102000E+03
     1    94    73  -0.728135E+03  -0.257389E+03  -0.659063E+02  -0.740000E+02


 SOLVING FOR HEAD 
                                                   Max.-Head-Change                        Max.-Flux-Residual
  Residual-Control   Outer-Iter.   Inner-Iter.     Column Row Layer    Max.-Head-Change    Column Row Layer    Max.-Flux-Residual            L2-New               L2-Old           Solver-Max-Delh
          0                 1           3           197   82     1       0.2458785302E+00     197   82    1       0.5996908897E+03      0.3126109574E+04      0.3196283370E+03      0.2458785302E+00
          0                 2           2           232   93     1       0.7930647040E-01     197   82    1      -0.5997650880E+02      0.3126119461E+03      0.3126109574E+04      0.7930647040E-01

    ------------------------------------------------
       NWT REQUIRED            2 OUTER ITERATIONS 
       AND A TOTAL OF          5 INNER ITERATIONS.
    ------------------------------------------------

 NO OUTPUT CONTROL FOR STRESS PERIOD   57   TIME STEP    8

 WELLS WITH REDUCED PUMPING FOR STRESS PERIOD    57 TIME STEP     8
   LAY   ROW   COL         APPL.Q          ACT.Q        GW-HEAD       CELL-BOT
     1    77   213  -0.728135E+03  -0.533917E+03   0.155911E+03   0.148000E+03
     1    92    77  -0.728135E+03  -0.407416E+03  -0.799896E+02  -0.930000E+02
     1    94    77  -0.728135E+03  -0.214719E+03  -0.938671E+02  -0.102000E+03
     1    94    73  -0.728135E+03  -0.260822E+03  -0.658403E+02  -0.740000E+02


 SOLVING FOR HEAD 
                                                   Max.-Head-Change                        Max.-Flux-Residual
  Residual-Control   Outer-Iter.   Inner-Iter.     Column Row Layer    Max.-Head-Change    Column Row Layer    Max.-Flux-Residual            L2-New               L2-Old           Solver-Max-Delh
          0                 1           3           197   82     1       0.2418052487E+00     197   82    1       0.5897426434E+03      0.3065699734E+04      0.3126119461E+03      0.2418052487E+00
          0                 2           2           232   93     1       0.8405652310E-01     197   82    1      -0.5898149367E+02      0.3065784477E+03      0.3065699734E+04      0.8405652310E-01

    ------------------------------------------------
       NWT REQUIRED            2 OUTER ITERATIONS 
       AND A TOTAL OF          5 INNER ITERATIONS.
    ------------------------------------------------

 NO OUTPUT CONTROL FOR STRESS PERIOD   57   TIME STEP    9

 WELLS WITH REDUCED PUMPING FOR STRESS PERIOD    57 TIME STEP     9
   LAY   ROW   COL         APPL.Q          ACT.Q        GW-HEAD       CELL-BOT
     1    77   213  -0.728135E+03  -0.541088E+03   0.156000E+03   0.148000E+03
     1    92    77  -0.728135E+03  -0.406280E+03  -0.800149E+02  -0.930000E+02
     1    94    77  -0.728135E+03  -0.217209E+03  -0.938113E+02  -0.102000E+03
     1    94    73  -0.728135E+03  -0.264192E+03  -0.657758E+02  -0.740000E+02


 SOLVING FOR HEAD 
                                                   Max.-Head-Change                        Max.-Flux-Residual
  Residual-Control   Outer-Iter.   Inner-Iter.     Column Row Layer    Max.-Head-Change    Column Row Layer    Max.-Flux-Residual            L2-New               L2-Old           Solver-Max-Delh
          0                 1           3           197   82     1       0.2378077470E+00     197   82    1       0.5799794693E+03      0.3012717943E+04      0.3065784477E+03      0.2378077470E+00
          0                 2           2           232   93     1       0.9232123175E-01     197   82    1      -0.5800499094E+02      0.3012689479E+03      0.3012717943E+04      0.9232123175E-01

    ------------------------------------------------
       NWT REQUIRED            2 OUTER ITERATIONS 
       AND A TOTAL OF          5 INNER ITERATIONS.
    ------------------------------------------------

 OUTPUT CONTROL FOR STRESS PERIOD   57   TIME STEP   10
    SAVE HEAD FOR ALL LAYERS

 WELLS WITH REDUCED PUMPING FOR STRESS PERIOD    57 TIME STEP    10
   LAY   ROW   COL         APPL.Q          ACT.Q        GW-HEAD       CELL-BOT
     1    77   213  -0.728135E+03  -0.547915E+03   0.156084E+03   0.148000E+03
     1    92    77  -0.728135E+03  -0.405389E+03  -0.800346E+02  -0.930000E+02
     1    94    77  -0.728135E+03  -0.219660E+03  -0.937564E+02  -0.102000E+03
     1    94    73  -0.728135E+03  -0.267497E+03  -0.657126E+02  -0.740000E+02


 HEAD WILL BE SAVED ON UNIT   51 AT END OF TIME STEP   10, STRESS PERIOD   57
1
  VOLUMETRIC BUDGET FOR ENTIRE MODEL AT END OF TIME STEP   10, STRESS PERIOD  57
  ------------------------------------------------------------------------------

     CUMULATIVE VOLUMES      L**3       RATES FOR THIS TIME STEP      L**3/T
     ------------------                 ------------------------

           IN:                                      IN:
           ---                                      ---
             STORAGE =   570631552.0000               STORAGE =      143220.1094
       CONSTANT HEAD =    87878224.0000         CONSTANT HEAD =       52085.8672
               WELLS =           0.0000                 WELLS =           0.0000
              DRAINS =           0.0000                DRAINS =           0.0000
                  ET =           0.0000                    ET =           0.0000
            RECHARGE =   332064768.0000              RECHARGE =      135955.1719

            TOTAL IN =   990574528.0000              TOTAL IN =      331261.1250

          OUT:                                     OUT:
          ----                                     ----
             STORAGE =   193070976.0000               STORAGE =       28298.3457
       CONSTANT HEAD =           0.0000         CONSTANT HEAD =           0.0000
               WELLS =   517148768.0000                 WELLS =      147043.2031
              DRAINS =   197632288.0000                DRAINS =      113036.1953
                  ET =    81484352.0000                    ET =       42311.3984
            RECHARGE =       81860.0000              RECHARGE =           0.0000

           TOTAL OUT =   989418240.0000             TOTAL OUT =      330689.1562

            IN - OUT =     1156288.0000              IN - OUT =         571.9688

 PERCENT DISCREPANCY =           0.12     PERCENT DISCREPANCY =           0.17






         TIME SUMMARY AT END OF TIME STEP   10 IN STRESS PERIOD   57
                    SECONDS     MINUTES      HOURS       DAYS        YEARS
                    -----------------------------------------------------------
   TIME STEP LENGTH 2.62656E+05  4377.6      72.960      3.0400     8.32307E-03
 STRESS PERIOD TIME 2.62656E+06  43776.      729.60      30.400     8.32307E-02
         TOTAL TIME 1.49714E+08 2.49524E+06  41587.      1732.8      4.7442    
1
1
                            STRESS PERIOD NO.   58, LENGTH =   30.40000    
                            -----------------------------------------------

                              NUMBER OF TIME STEPS =    10

                               MULTIPLIER FOR DELT =     1.000

                            INITIAL TIME STEP SIZE =   3.040000    

 WELL NO.  LAYER   ROW   COL   STRESS RATE         
 --------------------------------------------------
      1      1     69    225      -4925.    
      2      1     71    224       0.000    
      3      1     74    220       0.000    
      4      1     73    220       0.000    
      5      1     71    223       0.000    
      6      1     71    223       0.000    
      7      1     72    223       0.000    
      8      1     92    173       0.000    
      9      1     94    174       0.000    
     10      1     93    175       0.000    
     11      1    203    328       0.000    
     12      1    438    460      -2851.    
     13      1    436    461      -2851.    
     14      1    410    454      -2851.    
     15      1    433    460      -2851.    
     16      1    431    462      -2851.    
     17      1    417    459      -2851.    
     18      1    418    458      -2851.    
     19      1    414    455      -2851.    
     20      1    443    464      -2851.    
     21      1    379    425      -2851.    
     22      1    362    405      -2851.    
     23      1    361    405      -2851.    
     24      1    362    406      -2851.    
     25      1    363    408      -2851.    
     26      1    364    410      -2851.    
     27      1    369    418      -2851.    
     28      1    367    417      -2851.    
     29      1    365    415      -2851.    
     30      1    402    447      -2851.    
     31      1    400    446      -2851.    
     32      1    392    444      -2851.    
     33      1    391    441      -2851.    
     34      1    403    448      -2851.    
     35      1    405    447      -2851.    
     36      1    362    410      -2851.    
     37      1    362    411      -2851.    
     38      1    363    412      -2851.    
     39      1    375    421      -2851.    
     40      1    383    430      -2851.    
     41      1    397    445      -2851.    
     42      1    360    403      -2851.    
     43      1    350    401      -2851.    
     44      1    346    393      -3705.    
     45      1    333    387      -3705.    
     46      1    328    384      -3705.    
     47      1    326    383      -3705.    
     48      1    323    378      -3705.    
     49      1    321    378      -3705.    
     50      1    322    376      -3705.    
     51      1    316    374      -3705.    
     52      1    311    371      -3705.    
     53      1    307    369      -3705.    
     54      1    305    368      -3705.    
     55      1    303    368      -3705.    
     56      1    300    369      -3705.    
     57      1    293    364      -3705.    
     58      1    292    362      -3705.    
     59      1    278    350      -3705.    
     60      1    274    351      -3705.    
     61      1    273    350      -3705.    
     62      1    271    350      -3705.    
     63      1    267    348      -3705.    
     64      1    263    348      -3705.    
     65      1    263    348      -3705.    
     66      1    248    347      -3705.    
     67      1    243    342      -3705.    
     68      1    242    339      -3705.    
     69      1    238    341      -3705.    
     70      1    233    340      -3705.    
     71      1    232    340      -3705.    
     72      1    229    341      -3705.    
     73      1    227    341      -3705.    
     74      1    219    342      -3705.    
     75      1    219    336      -3705.    
     76      1    199    329      -3705.    
     77      1    191    332      -5038.    
     78      1    190    332      -5038.    
     79      1    130    310      -5038.    
     80      1    123    305      -5038.    
     81      1    104    289      -5038.    
     82      1     96    287      -4290.    
     83      1     95    284      -4290.    
     84      1     95    280      -4290.    
     85      1     93    276      -4290.    
     86      1     94    275      -4290.    
     87      1     90    277      -4290.    
     88      1     90    273      -4290.    
     89      1     86    271      -4290.    
     90      1     85    270      -4290.    
     91      1     84    265      -4290.    
     92      1     85    265      -4290.    
     93      1     84    264      -4290.    
     94      1     79    263      -4290.    
     95      1     79    263      -4290.    
     96      1     76    262      -4290.    
     97      1     73    257      -4290.    
     98      1     74    255      -4290.    
     99      1     71    255      -4290.    
    100      1     66    253      -4290.    
    101      1     68    252      -4290.    
    102      1     69    250      -4290.    
    103      1     65    248      -4290.    
    104      1     68    248      -4290.    
    105      1     69    247      -4290.    
    106      1     73    247      -4290.    
    107      1     64    246      -4290.    
    108      1     69    245      -4290.    
    109      1     72    245      -4290.    
    110      1     69    241      -4290.    
    111      1     73    238      -4290.    
    112      1     70    238      -4290.    
    113      1     76    263      -4290.    
    114      1     66    232      -2310.    
    115      1     69    229      -2310.    
    116      1     71    228      -2310.    
    117      1     69    227      -2310.    
    118      1     72    219      -2310.    
    119      1     72    218      -2310.    
    120      1     72    218      -2310.    
    121      1     73    217      -2310.    
    122      1     77    219      -2310.    
    123      1     78    219      -2310.    
    124      1     83    213      -2310.    
    125      1     77    213      -2310.    
    126      1     81    211      -2310.    
    127      1     81    210      -2310.    
    128      1     81    210      -2310.    
    129      1     82    208      -2310.    
    130      1     80    205      -2310.    
    131      1     86    202      -2310.    
    132      1     84    200      -2310.    
    133      1     89    200      -2310.    
    134      1     89    199      -2310.    
    135      1     88    199      -2310.    
    136      1     86    199      -2310.    
    137      1     85    199      -2310.    
    138      1     82    197      -2310.    
    139      1     86    197      -2310.    
    140      1     88    198      -2310.    
    141      1     90    192      -2310.    
    142      1     89    191      -2310.    
    143      1     84    192      -2310.    
    144      1     91    189      -2310.    
    145      1     92    185      -2310.    
    146      1     87    183      -2310.    
    147      1     92    182      -2310.    
    148      1     90    182      -2310.    
    149      1     88    179      -2310.    
    150      1     89    176      -2310.    
    151      1     92    172      -2310.    
    152      1     93    164      -2310.    
    153      1     94    162      -2310.    
    154      1    103    156      -2310.    
    155      1    103    156      -2310.    
    156      1     96    154      -2310.    
    157      1     97    153      -2310.    
    158      1    122    139      -2310.    
    159      1     92     77      -2310.    
    160      1     94     77      -2310.    
    161      1     94     73      -2310.    
    162      1     97    152      -2310.    
    163      1    118    337      -666.7    
    164      1    133    319      -2678.    
    165      1    131    320      -3951.    
    166      1    133    321      -2956.    
    167      1    161    329      -2141.    
    168      1    178    330      -551.0    
    169      1    163    330      -1122.    
    170      1    131    320      -2473.    
    171      1    129    315      -3937.    
    172      1    162    329      -1959.    
    173      1    131    311      -826.1    
    174      1    221    340      -1994.    
    175      1    220    340      -1034.    
    176      1    221    340      -667.7    
    177      1    137    322      -2082.    
    178      1    137    321      -1407.    
    179      1    185    329      -2012.    
    180      1    183    329      -1473.    
    181      1    175    329      -585.3    
    182      1     79    243      -1490.    
    183      1     77    245      -2414.    
    184      1    199    329      -1617.    
    185      1    198    330      -2514.    
    186      1    140    328      -972.1    
    187      1    143    327      -863.6    
    188      1    139    327      -1331.    

    188 WELLS

 REUSING NON-PARAMETER DRAINS FROM LAST STRESS PERIOD

   1061 DRAINS

 REUSING SURF FROM LAST STRESS PERIOD

 REUSING EVTR FROM LAST STRESS PERIOD

 REUSING EXDP FROM LAST STRESS PERIOD



                           RECHARGE
 READING ON UNIT   19 WITH FORMAT: (510E15.6)          

 SOLVING FOR HEAD 
                                                   Max.-Head-Change                        Max.-Flux-Residual
  Residual-Control   Outer-Iter.   Inner-Iter.     Column Row Layer    Max.-Head-Change    Column Row Layer    Max.-Flux-Residual            L2-New               L2-Old           Solver-Max-Delh
          0                 1           3           263   79     1      -0.1918184763E+02     263   79    1      -0.6465454807E+04      0.3073238998E+05      0.3012689479E+03     -0.1918184763E+02
          0                 2           2           263   79     1       0.1456459085E+01     238   70    1       0.7064268505E+03      0.3096134551E+04      0.3073238998E+05      0.1456459085E+01
          0                 3           2           232   93     1       0.1021383733E+00     341  233    1       0.4821518006E+02      0.1644138441E+03      0.3096134551E+04      0.1021383733E+00
          0                 4           2           232   93     1       0.1009750201E+00     341  233    1       0.2409946106E+01      0.8218010107E+01      0.1644138441E+03      0.1009750201E+00
          0                 5           2           232   93     1       0.9982439447E-01     341  233    1       0.1204482168E+00      0.4107540827E+00      0.8218010107E+01      0.9982439447E-01

    ------------------------------------------------
       NWT REQUIRED            5 OUTER ITERATIONS 
       AND A TOTAL OF         11 INNER ITERATIONS.
    ------------------------------------------------

 NO OUTPUT CONTROL FOR STRESS PERIOD   58   TIME STEP    1

 WELLS WITH REDUCED PUMPING FOR STRESS PERIOD    58 TIME STEP     1
   LAY   ROW   COL         APPL.Q          ACT.Q        GW-HEAD       CELL-BOT
     1    77   213  -0.230952E+04  -0.165350E+04   0.155759E+03   0.148000E+03
     1    92    77  -0.230952E+04  -0.844894E+03  -0.831280E+02  -0.930000E+02
     1    94    77  -0.230952E+04  -0.680841E+03  -0.938686E+02  -0.102000E+03
     1    94    73  -0.230952E+04  -0.825156E+03  -0.658532E+02  -0.740000E+02


 SOLVING FOR HEAD 
                                                   Max.-Head-Change                        Max.-Flux-Residual
  Residual-Control   Outer-Iter.   Inner-Iter.     Column Row Layer    Max.-Head-Change    Column Row Layer    Max.-Flux-Residual            L2-New               L2-Old           Solver-Max-Delh
          0                 1           3           263   79     1      -0.8167286785E+01     374  316    1      -0.2595066041E+04      0.1467056525E+05      0.4107540827E+00     -0.8167286785E+01
          0                 2           3           263   79     1       0.6524940693E+00     374  316    1       0.2593103268E+03      0.1456498019E+04      0.1467056525E+05      0.6524940693E+00
          0                 3           2           232   93     1       0.1110937758E+00     374  316    1       0.1296404685E+02      0.7274849564E+02      0.1456498019E+04      0.1110937758E+00
          0                 4           2           232   93     1       0.1096315699E+00     374  316    1       0.6480686731E+00      0.3636511346E+01      0.7274849564E+02      0.1096315699E+00
          0                 5           2           232   93     1       0.1081894191E+00     458  452    1      -0.4726239959E+00      0.5063817248E+00      0.3636511346E+01      0.1081894191E+00
          0                 6           2           232   93     1       0.1067666313E+00     458  452    1      -0.1301791722E+00      0.1305526665E+00      0.5063817248E+00      0.1067666313E+00
          0                 7           2           232   93     1       0.1053629322E+00     458  452    1      -0.3579232160E-01      0.3600064264E-01      0.1305526665E+00      0.1053629322E+00
          0                 8           2           232   93     1       0.1039780633E+00     458  452    1      -0.9777936274E-02      0.1049967150E-01      0.3600064264E-01      0.1039780633E+00
          0                 9           2           232   93     1       0.1026117625E+00     457  453    1       0.3598460449E-02      0.4619201397E-02      0.1049967150E-01      0.1026117625E+00
          0                10           2           232   93     1       0.1012637689E+00     457  453    1       0.3588682547E-02      0.3850518538E-02      0.4619201397E-02      0.1012637689E+00
          0                11           2           232   93     1       0.9993382629E-01     457  453    1       0.3578931222E-02      0.3784123625E-02      0.3850518538E-02      0.9993382629E-01

    ------------------------------------------------
       NWT REQUIRED           11 OUTER ITERATIONS 
       AND A TOTAL OF         24 INNER ITERATIONS.
    ------------------------------------------------

 NO OUTPUT CONTROL FOR STRESS PERIOD   58   TIME STEP    2

 WELLS WITH REDUCED PUMPING FOR STRESS PERIOD    58 TIME STEP     2
   LAY   ROW   COL         APPL.Q          ACT.Q        GW-HEAD       CELL-BOT
     1    77   213  -0.230952E+04  -0.157458E+04   0.155464E+03   0.148000E+03
     1    92    77  -0.230952E+04  -0.639907E+03  -0.846466E+02  -0.930000E+02
     1    94    77  -0.230952E+04  -0.665858E+03  -0.939752E+02  -0.102000E+03
     1    94    73  -0.230952E+04  -0.803364E+03  -0.659854E+02  -0.740000E+02


 SOLVING FOR HEAD 
                                                   Max.-Head-Change                        Max.-Flux-Residual
  Residual-Control   Outer-Iter.   Inner-Iter.     Column Row Layer    Max.-Head-Change    Column Row Layer    Max.-Flux-Residual            L2-New               L2-Old           Solver-Max-Delh
          0                 1           3           263   79     1      -0.3838308771E+01     374  316    1      -0.2323577685E+04      0.1166141279E+05      0.3784123625E-02     -0.3838308771E+01
          0                 2           2           263   79     1       0.3168380024E+00     374  316    1       0.2321665584E+03      0.1162899360E+04      0.1166141279E+05      0.3168380024E+00
          0                 3           2           232   93     1       0.1111859308E+00     374  316    1       0.1160689755E+02      0.5812211238E+02      0.1162899360E+04      0.1111859308E+00
          0                 4           2           232   93     1       0.1094915385E+00     374  316    1       0.5802249853E+00      0.2905476253E+01      0.5812211238E+02      0.1094915385E+00
          0                 5           2           232   93     1       0.1078219719E+00     374  316    1       0.2899962247E-01      0.1452724594E+00      0.2905476253E+01      0.1078219719E+00
          0                 6           2           232   93     1       0.1061781777E+00     457  453    1       0.3540753942E-02      0.8184009004E-02      0.1452724594E+00      0.1061781777E+00
          0                 7           2           232   93     1       0.1045598433E+00     457  453    1       0.3531078149E-02      0.3775483767E-02      0.8184009004E-02      0.1045598433E+00
          0                 8           2           232   93     1       0.1029665760E+00     457  453    1       0.3521428872E-02      0.3742188243E-02      0.3775483767E-02      0.1029665760E+00
          0                 9           2           232   93     1       0.1013979764E+00     457  453    1       0.3511805983E-02      0.3726781222E-02      0.3742188243E-02      0.1013979764E+00
          0                10           2           232   93     1       0.9985364869E-01     457  453    1       0.3502209399E-02      0.3711601466E-02      0.3726781222E-02      0.9985364869E-01

    ------------------------------------------------
       NWT REQUIRED           10 OUTER ITERATIONS 
       AND A TOTAL OF         21 INNER ITERATIONS.
    ------------------------------------------------

 NO OUTPUT CONTROL FOR STRESS PERIOD   58   TIME STEP    3

 WELLS WITH REDUCED PUMPING FOR STRESS PERIOD    58 TIME STEP     3
   LAY   ROW   COL         APPL.Q          ACT.Q        GW-HEAD       CELL-BOT
     1    77   213  -0.230952E+04  -0.150161E+04   0.155199E+03   0.148000E+03
     1    92    77  -0.230952E+04  -0.542400E+03  -0.854132E+02  -0.930000E+02
     1    94    77  -0.230952E+04  -0.651719E+03  -0.940763E+02  -0.102000E+03
     1    94    73  -0.230952E+04  -0.782976E+03  -0.661098E+02  -0.740000E+02


 SOLVING FOR HEAD 
                                                   Max.-Head-Change                        Max.-Flux-Residual
  Residual-Control   Outer-Iter.   Inner-Iter.     Column Row Layer    Max.-Head-Change    Column Row Layer    Max.-Flux-Residual            L2-New               L2-Old           Solver-Max-Delh
          0                 1           3           263   79     1      -0.2035987012E+01     374  316    1      -0.2086334178E+04      0.1027524523E+05      0.3711601466E-02     -0.2035987012E+01
          0                 2           2           263   79     1       0.1712373865E+00     374  316    1       0.2084543683E+03      0.1031292023E+04      0.1027524523E+05      0.1712373865E+00
          0                 3           2           232   93     1       0.1102526850E+00     374  316    1       0.1042138275E+02      0.5155497361E+02      0.1031292023E+04      0.1102526850E+00
          0                 4           2           232   93     1       0.1083040979E+00     374  316    1       0.5209615289E+00      0.2577210760E+01      0.5155497361E+02      0.1083040979E+00
          0                 5           2           232   93     1       0.1063898255E+00     374  316    1       0.2603764670E-01      0.1288623456E+00      0.2577210760E+01      0.1063898255E+00
          0                 6           2           232   93     1       0.1045097731E+00     457  453    1       0.3464519991E-02      0.7423047842E-02      0.1288623456E+00      0.1045097731E+00
          0                 7           2           232   93     1       0.1026633697E+00     457  453    1       0.3454998829E-02      0.3694890616E-02      0.7423047842E-02      0.1026633697E+00
          0                 8           2           232   93     1       0.1008500080E+00     457  453    1       0.3445503907E-02      0.3664491678E-02      0.3694890616E-02      0.1008500080E+00
          0                 9           2           232   93     1       0.9906908435E-01     457  453    1       0.3436035097E-02      0.3648287225E-02      0.3664491678E-02      0.9906908435E-01

    ------------------------------------------------
       NWT REQUIRED            9 OUTER ITERATIONS 
       AND A TOTAL OF         19 INNER ITERATIONS.
    ------------------------------------------------

 NO OUTPUT CONTROL FOR STRESS PERIOD   58   TIME STEP    4

 WELLS WITH REDUCED PUMPING FOR STRESS PERIOD    58 TIME STEP     4
   LAY   ROW   COL         APPL.Q          ACT.Q        GW-HEAD       CELL-BOT
     1    77   213  -0.230952E+04  -0.143471E+04   0.154959E+03   0.148000E+03
     1    92    77  -0.230952E+04  -0.494229E+03  -0.858074E+02  -0.930000E+02
     1    94    77  -0.230952E+04  -0.638370E+03  -0.941723E+02  -0.102000E+03
     1    94    73  -0.230952E+04  -0.763896E+03  -0.662268E+02  -0.740000E+02


 SOLVING FOR HEAD 
                                                   Max.-Head-Change                        Max.-Flux-Residual
  Residual-Control   Outer-Iter.   Inner-Iter.     Column Row Layer    Max.-Head-Change    Column Row Layer    Max.-Flux-Residual            L2-New               L2-Old           Solver-Max-Delh
          0                 1           3           263   79     1      -0.1231572081E+01     378  321    1      -0.1888551963E+04      0.9454025805E+04      0.3648287225E-02     -0.1231572081E+01
          0                 2           2           232   93     1       0.1102988111E+00     378  321    1       0.1886819764E+03      0.9511981588E+03      0.9454025805E+04      0.1102988111E+00
          0                 3           2           232   93     1       0.1080858684E+00     378  321    1       0.9432802927E+01      0.4755801625E+02      0.9511981588E+03      0.1080858684E+00
          0                 4           2           232   93     1       0.1058806264E+00     378  321    1       0.4715423514E+00      0.2377413287E+01      0.4755801625E+02      0.1058806264E+00
          0                 5           2           232   93     1       0.1037190503E+00     378  321    1       0.2356766698E-01      0.1188787955E+00      0.2377413287E+01      0.1037190503E+00
          0                 6           2           232   93     1       0.1016019317E+00     457  453    1       0.3398729824E-02      0.6957225099E-02      0.1188787955E+00      0.1016019317E+00
          0                 7           2           232   93     1       0.9952846407E-01     457  453    1       0.3389336525E-02      0.3620592510E-02      0.6957225099E-02      0.9952846407E-01

    ------------------------------------------------
       NWT REQUIRED            7 OUTER ITERATIONS 
       AND A TOTAL OF         15 INNER ITERATIONS.
    ------------------------------------------------

 NO OUTPUT CONTROL FOR STRESS PERIOD   58   TIME STEP    5

 WELLS WITH REDUCED PUMPING FOR STRESS PERIOD    58 TIME STEP     5
   LAY   ROW   COL         APPL.Q          ACT.Q        GW-HEAD       CELL-BOT
     1    77   213  -0.230952E+04  -0.137377E+04   0.154744E+03   0.148000E+03
     1    92    77  -0.230952E+04  -0.469785E+03  -0.860122E+02  -0.930000E+02
     1    94    77  -0.230952E+04  -0.625763E+03  -0.942635E+02  -0.102000E+03
     1    94    73  -0.230952E+04  -0.746032E+03  -0.663370E+02  -0.740000E+02


 SOLVING FOR HEAD 
                                                   Max.-Head-Change                        Max.-Flux-Residual
  Residual-Control   Outer-Iter.   Inner-Iter.     Column Row Layer    Max.-Head-Change    Column Row Layer    Max.-Flux-Residual            L2-New               L2-Old           Solver-Max-Delh
          0                 1           3           264   78     1      -0.9538864039E+00     378  321    1      -0.1729547379E+04      0.8901543263E+04      0.3620592510E-02     -0.9538864039E+00
          0                 2           2           232   93     1       0.1095030453E+00     378  321    1       0.1727897883E+03      0.8896943162E+03      0.8901543263E+04      0.1095030453E+00
          0                 3           2           232   93     1       0.1069554076E+00     378  321    1       0.8638255730E+01      0.4448512298E+02      0.8896943162E+03      0.1069554076E+00
          0                 4           2           232   93     1       0.1044474707E+00     378  321    1       0.4318231118E+00      0.2223805534E+01      0.4448512298E+02      0.1044474707E+00
          0                 5           2           232   93     1       0.1019980978E+00     378  321    1       0.2158250107E-01      0.1112037693E+00      0.2223805534E+01      0.1019980978E+00
          0                 6           2           232   93     1       0.9960656774E-01     457  453    1       0.3352209351E-02      0.6605705882E-02      0.1112037693E+00      0.9960656774E-01

    ------------------------------------------------
       NWT REQUIRED            6 OUTER ITERATIONS 
       AND A TOTAL OF         13 INNER ITERATIONS.
    ------------------------------------------------

 NO OUTPUT CONTROL FOR STRESS PERIOD   58   TIME STEP    6

 WELLS WITH REDUCED PUMPING FOR STRESS PERIOD    58 TIME STEP     6
   LAY   ROW   COL         APPL.Q          ACT.Q        GW-HEAD       CELL-BOT
     1    77   213  -0.230952E+04  -0.131851E+04   0.154551E+03   0.148000E+03
     1    92    77  -0.230952E+04  -0.457186E+03  -0.861191E+02  -0.930000E+02
     1    94    77  -0.230952E+04  -0.613851E+03  -0.943501E+02  -0.102000E+03
     1    94    73  -0.230952E+04  -0.729302E+03  -0.664407E+02  -0.740000E+02


 SOLVING FOR HEAD 
                                                   Max.-Head-Change                        Max.-Flux-Residual
  Residual-Control   Outer-Iter.   Inner-Iter.     Column Row Layer    Max.-Head-Change    Column Row Layer    Max.-Flux-Residual            L2-New               L2-Old           Solver-Max-Delh
          0                 1           3           264   78     1      -0.8165450083E+00     378  321    1      -0.1589195852E+04      0.8501603510E+04      0.6605705882E-02     -0.8165450083E+00
          0                 2           2           232   93     1       0.1081141715E+00     378  321    1       0.1587651980E+03      0.8542127325E+03      0.8501603510E+04      0.1081141715E+00
          0                 3           2           232   93     1       0.1052520217E+00     378  321    1       0.7937105390E+01      0.4271325273E+02      0.8542127325E+03      0.1052520217E+00
          0                 4           2           232   93     1       0.1024364053E+00     378  321    1       0.3967728215E+00      0.2135232582E+01      0.4271325273E+02      0.1024364053E+00
          0                 5           2           232   93     1       0.9969539184E-01     378  321    1       0.1983068843E-01      0.1067780082E+00      0.2135232582E+01      0.9969539184E-01

    ------------------------------------------------
       NWT REQUIRED            5 OUTER ITERATIONS 
       AND A TOTAL OF         11 INNER ITERATIONS.
    ------------------------------------------------

 NO OUTPUT CONTROL FOR STRESS PERIOD   58   TIME STEP    7

 WELLS WITH REDUCED PUMPING FOR STRESS PERIOD    58 TIME STEP     7
   LAY   ROW   COL         APPL.Q          ACT.Q        GW-HEAD       CELL-BOT
     1    77   213  -0.230952E+04  -0.126858E+04   0.154377E+03   0.148000E+03
     1    92    77  -0.230952E+04  -0.450641E+03  -0.861750E+02  -0.930000E+02
     1    94    77  -0.230952E+04  -0.602592E+03  -0.944324E+02  -0.102000E+03
     1    94    73  -0.230952E+04  -0.713627E+03  -0.665384E+02  -0.740000E+02


 SOLVING FOR HEAD 
                                                   Max.-Head-Change                        Max.-Flux-Residual
  Residual-Control   Outer-Iter.   Inner-Iter.     Column Row Layer    Max.-Head-Change    Column Row Layer    Max.-Flux-Residual            L2-New               L2-Old           Solver-Max-Delh
          0                 1           3           264   78     1      -0.7014431508E+00     378  321    1      -0.1464934644E+04      0.8197123560E+04      0.1067780082E+00     -0.7014431508E+00
          0                 2           2           232   93     1       0.1066772892E+00     378  321    1       0.1463505733E+03      0.8194268262E+03      0.8197123560E+04      0.1066772892E+00
          0                 3           2           232   93     1       0.1034654077E+00     378  321    1       0.7316460203E+01      0.4096933887E+02      0.8194268262E+03      0.1034654077E+00
          0                 4           2           232   93     1       0.1003287132E+00     378  321    1       0.3657469988E+00      0.2048056039E+01      0.4096933887E+02      0.1003287132E+00
          0                 5           2           232   93     1       0.9728683811E-01     378  321    1       0.1828001924E-01      0.1024221228E+00      0.2048056039E+01      0.9728683811E-01

    ------------------------------------------------
       NWT REQUIRED            5 OUTER ITERATIONS 
       AND A TOTAL OF         11 INNER ITERATIONS.
    ------------------------------------------------

 NO OUTPUT CONTROL FOR STRESS PERIOD   58   TIME STEP    8

 WELLS WITH REDUCED PUMPING FOR STRESS PERIOD    58 TIME STEP     8
   LAY   ROW   COL         APPL.Q          ACT.Q        GW-HEAD       CELL-BOT
     1    77   213  -0.230952E+04  -0.122357E+04   0.154221E+03   0.148000E+03
     1    92    77  -0.230952E+04  -0.447234E+03  -0.862043E+02  -0.930000E+02
     1    94    77  -0.230952E+04  -0.591945E+03  -0.945107E+02  -0.102000E+03
     1    94    73  -0.230952E+04  -0.698934E+03  -0.666305E+02  -0.740000E+02


 SOLVING FOR HEAD 
                                                   Max.-Head-Change                        Max.-Flux-Residual
  Residual-Control   Outer-Iter.   Inner-Iter.     Column Row Layer    Max.-Head-Change    Column Row Layer    Max.-Flux-Residual            L2-New               L2-Old           Solver-Max-Delh
          0                 1           3           343  217     1      -0.6137424918E+00     378  321    1      -0.1354606785E+04      0.7957816832E+04      0.1024221228E+00     -0.6137424918E+00
          0                 2           2           232   93     1       0.1025877424E+00     378  321    1       0.1353294001E+03      0.7957683442E+03      0.7957816832E+04      0.1025877424E+00
          0                 3           2           232   93     1       0.9912107482E-01     378  321    1       0.6765488399E+01      0.3978685376E+02      0.7957683442E+03      0.9912107482E-01

    ------------------------------------------------
       NWT REQUIRED            3 OUTER ITERATIONS 
       AND A TOTAL OF          7 INNER ITERATIONS.
    ------------------------------------------------

 NO OUTPUT CONTROL FOR STRESS PERIOD   58   TIME STEP    9

 WELLS WITH REDUCED PUMPING FOR STRESS PERIOD    58 TIME STEP     9
   LAY   ROW   COL         APPL.Q          ACT.Q        GW-HEAD       CELL-BOT
     1    77   213  -0.230952E+04  -0.118306E+04   0.154081E+03   0.148000E+03
     1    92    77  -0.230952E+04  -0.445463E+03  -0.862195E+02  -0.930000E+02
     1    94    77  -0.230952E+04  -0.581870E+03  -0.945851E+02  -0.102000E+03
     1    94    73  -0.230952E+04  -0.685153E+03  -0.667173E+02  -0.740000E+02


 SOLVING FOR HEAD 
                                                   Max.-Head-Change                        Max.-Flux-Residual
  Residual-Control   Outer-Iter.   Inner-Iter.     Column Row Layer    Max.-Head-Change    Column Row Layer    Max.-Flux-Residual            L2-New               L2-Old           Solver-Max-Delh
          0                 1           3           343  217     1      -0.5726269172E+00     378  321    1      -0.1256357896E+04      0.7764274913E+04      0.3978685376E+02     -0.5726269172E+00
          0                 2           2           232   93     1       0.1029359223E+00     457  431    1       0.1435481470E+03      0.7894186109E+03      0.7764274913E+04      0.1029359223E+00
          0                 3           2           232   93     1       0.9903894647E-01     457  431    1       0.7173469767E+01      0.3946898470E+02      0.7894186109E+03      0.9903894647E-01

    ------------------------------------------------
       NWT REQUIRED            3 OUTER ITERATIONS 
       AND A TOTAL OF          7 INNER ITERATIONS.
    ------------------------------------------------

 OUTPUT CONTROL FOR STRESS PERIOD   58   TIME STEP   10
    SAVE HEAD FOR ALL LAYERS

 WELLS WITH REDUCED PUMPING FOR STRESS PERIOD    58 TIME STEP    10
   LAY   ROW   COL         APPL.Q          ACT.Q        GW-HEAD       CELL-BOT
     1    77   213  -0.230952E+04  -0.114665E+04   0.153956E+03   0.148000E+03
     1    92    77  -0.230952E+04  -0.444551E+03  -0.862274E+02  -0.930000E+02
     1    94    77  -0.230952E+04  -0.572336E+03  -0.946559E+02  -0.102000E+03
     1    94    73  -0.230952E+04  -0.672226E+03  -0.667991E+02  -0.740000E+02


 HEAD WILL BE SAVED ON UNIT   51 AT END OF TIME STEP   10, STRESS PERIOD   58
1
  VOLUMETRIC BUDGET FOR ENTIRE MODEL AT END OF TIME STEP   10, STRESS PERIOD  58
  ------------------------------------------------------------------------------

     CUMULATIVE VOLUMES      L**3       RATES FOR THIS TIME STEP      L**3/T
     ------------------                 ------------------------

           IN:                                      IN:
           ---                                      ---
             STORAGE =   582951232.0000               STORAGE =      395066.8750
       CONSTANT HEAD =    89461744.0000         CONSTANT HEAD =       52092.3828
               WELLS =           0.0000                 WELLS =           0.0000
              DRAINS =           0.0000                DRAINS =           0.0000
                  ET =           0.0000                    ET =           0.0000
            RECHARGE =   337204928.0000              RECHARGE =      169089.0781

            TOTAL IN =  1009617920.0000              TOTAL IN =      616248.3125

          OUT:                                     OUT:
          ----                                     ----
             STORAGE =   193523824.0000               STORAGE =       11410.3135
       CONSTANT HEAD =           0.0000         CONSTANT HEAD =           0.0000
               WELLS =   531278944.0000                 WELLS =      464386.6250
              DRAINS =   200857520.0000                DRAINS =      101132.7109
                  ET =    82719040.0000                    ET =       39222.2188
            RECHARGE =       81860.0000              RECHARGE =           0.0000

           TOTAL OUT =  1008461184.0000             TOTAL OUT =      616151.8750

            IN - OUT =     1156736.0000              IN - OUT =          96.4375

 PERCENT DISCREPANCY =           0.11     PERCENT DISCREPANCY =           0.02






         TIME SUMMARY AT END OF TIME STEP   10 IN STRESS PERIOD   58
                    SECONDS     MINUTES      HOURS       DAYS        YEARS
                    -----------------------------------------------------------
   TIME STEP LENGTH 2.62656E+05  4377.6      72.960      3.0400     8.32307E-03
 STRESS PERIOD TIME 2.62656E+06  43776.      729.60      30.400     8.32307E-02
         TOTAL TIME 1.52341E+08 2.53902E+06  42317.      1763.2      4.8274    
1
1
                            STRESS PERIOD NO.   59, LENGTH =   30.40000    
                            -----------------------------------------------

                              NUMBER OF TIME STEPS =    10

                               MULTIPLIER FOR DELT =     1.000

                            INITIAL TIME STEP SIZE =   3.040000    

 WELL NO.  LAYER   ROW   COL   STRESS RATE         
 --------------------------------------------------
      1      1     69    225      -5011.    
      2      1     71    224       0.000    
      3      1     74    220       0.000    
      4      1     73    220       0.000    
      5      1     71    223       0.000    
      6      1     71    223       0.000    
      7      1     72    223       0.000    
      8      1     92    173       0.000    
      9      1     94    174       0.000    
     10      1     93    175       0.000    
     11      1    203    328       0.000    
     12      1    438    460      -2137.    
     13      1    436    461      -2137.    
     14      1    410    454      -2137.    
     15      1    433    460      -2137.    
     16      1    431    462      -2137.    
     17      1    417    459      -2137.    
     18      1    418    458      -2137.    
     19      1    414    455      -2137.    
     20      1    443    464      -2137.    
     21      1    379    425      -2137.    
     22      1    362    405      -2137.    
     23      1    361    405      -2137.    
     24      1    362    406      -2137.    
     25      1    363    408      -2137.    
     26      1    364    410      -2137.    
     27      1    369    418      -2137.    
     28      1    367    417      -2137.    
     29      1    365    415      -2137.    
     30      1    402    447      -2137.    
     31      1    400    446      -2137.    
     32      1    392    444      -2137.    
     33      1    391    441      -2137.    
     34      1    403    448      -2137.    
     35      1    405    447      -2137.    
     36      1    362    410      -2137.    
     37      1    362    411      -2137.    
     38      1    363    412      -2137.    
     39      1    375    421      -2137.    
     40      1    383    430      -2137.    
     41      1    397    445      -2137.    
     42      1    360    403      -2137.    
     43      1    350    401      -2137.    
     44      1    346    393      -2609.    
     45      1    333    387      -2609.    
     46      1    328    384      -2609.    
     47      1    326    383      -2609.    
     48      1    323    378      -2609.    
     49      1    321    378      -2609.    
     50      1    322    376      -2609.    
     51      1    316    374      -2609.    
     52      1    311    371      -2609.    
     53      1    307    369      -2609.    
     54      1    305    368      -2609.    
     55      1    303    368      -2609.    
     56      1    300    369      -2609.    
     57      1    293    364      -2609.    
     58      1    292    362      -2609.    
     59      1    278    350      -2609.    
     60      1    274    351      -2609.    
     61      1    273    350      -2609.    
     62      1    271    350      -2609.    
     63      1    267    348      -2609.    
     64      1    263    348      -2609.    
     65      1    263    348      -2609.    
     66      1    248    347      -2609.    
     67      1    243    342      -2609.    
     68      1    242    339      -2609.    
     69      1    238    341      -2609.    
     70      1    233    340      -2609.    
     71      1    232    340      -2609.    
     72      1    229    341      -2609.    
     73      1    227    341      -2609.    
     74      1    219    342      -2609.    
     75      1    219    336      -2609.    
     76      1    199    329      -2609.    
     77      1    191    332      -3681.    
     78      1    190    332      -3681.    
     79      1    130    310      -3681.    
     80      1    123    305      -3681.    
     81      1    104    289      -3681.    
     82      1     96    287      -3788.    
     83      1     95    284      -3788.    
     84      1     95    280      -3788.    
     85      1     93    276      -3788.    
     86      1     94    275      -3788.    
     87      1     90    277      -3788.    
     88      1     90    273      -3788.    
     89      1     86    271      -3788.    
     90      1     85    270      -3788.    
     91      1     84    265      -3788.    
     92      1     85    265      -3788.    
     93      1     84    264      -3788.    
     94      1     79    263      -3788.    
     95      1     79    263      -3788.    
     96      1     76    262      -3788.    
     97      1     73    257      -3788.    
     98      1     74    255      -3788.    
     99      1     71    255      -3788.    
    100      1     66    253      -3788.    
    101      1     68    252      -3788.    
    102      1     69    250      -3788.    
    103      1     65    248      -3788.    
    104      1     68    248      -3788.    
    105      1     69    247      -3788.    
    106      1     73    247      -3788.    
    107      1     64    246      -3788.    
    108      1     69    245      -3788.    
    109      1     72    245      -3788.    
    110      1     69    241      -3788.    
    111      1     73    238      -3788.    
    112      1     70    238      -3788.    
    113      1     76    263      -3788.    
    114      1     66    232      -2343.    
    115      1     69    229      -2343.    
    116      1     71    228      -2343.    
    117      1     69    227      -2343.    
    118      1     72    219      -2343.    
    119      1     72    218      -2343.    
    120      1     72    218      -2343.    
    121      1     73    217      -2343.    
    122      1     77    219      -2343.    
    123      1     78    219      -2343.    
    124      1     83    213      -2343.    
    125      1     77    213      -2343.    
    126      1     81    211      -2343.    
    127      1     81    210      -2343.    
    128      1     81    210      -2343.    
    129      1     82    208      -2343.    
    130      1     80    205      -2343.    
    131      1     86    202      -2343.    
    132      1     84    200      -2343.    
    133      1     89    200      -2343.    
    134      1     89    199      -2343.    
    135      1     88    199      -2343.    
    136      1     86    199      -2343.    
    137      1     85    199      -2343.    
    138      1     82    197      -2343.    
    139      1     86    197      -2343.    
    140      1     88    198      -2343.    
    141      1     90    192      -2343.    
    142      1     89    191      -2343.    
    143      1     84    192      -2343.    
    144      1     91    189      -2343.    
    145      1     92    185      -2343.    
    146      1     87    183      -2343.    
    147      1     92    182      -2343.    
    148      1     90    182      -2343.    
    149      1     88    179      -2343.    
    150      1     89    176      -2343.    
    151      1     92    172      -2343.    
    152      1     93    164      -2343.    
    153      1     94    162      -2343.    
    154      1    103    156      -2343.    
    155      1    103    156      -2343.    
    156      1     96    154      -2343.    
    157      1     97    153      -2343.    
    158      1    122    139      -2343.    
    159      1     92     77      -2343.    
    160      1     94     77      -2343.    
    161      1     94     73      -2343.    
    162      1     97    152      -2343.    
    163      1    118    337      -666.7    
    164      1    133    319      -2678.    
    165      1    131    320      -3951.    
    166      1    133    321      -2956.    
    167      1    161    329      -2141.    
    168      1    178    330      -551.0    
    169      1    163    330      -1122.    
    170      1    131    320      -2473.    
    171      1    129    315      -3937.    
    172      1    162    329      -1959.    
    173      1    131    311      -826.1    
    174      1    221    340      -1994.    
    175      1    220    340      -1034.    
    176      1    221    340      -667.7    
    177      1    137    322      -2082.    
    178      1    137    321      -1407.    
    179      1    185    329      -2012.    
    180      1    183    329      -1473.    
    181      1    175    329      -585.3    
    182      1     79    243      -1490.    
    183      1     77    245      -2414.    
    184      1    199    329      -1617.    
    185      1    198    330      -2514.    
    186      1    140    328      -972.1    
    187      1    143    327      -863.6    
    188      1    139    327      -1331.    

    188 WELLS

 REUSING NON-PARAMETER DRAINS FROM LAST STRESS PERIOD

   1061 DRAINS

 REUSING SURF FROM LAST STRESS PERIOD

 REUSING EVTR FROM LAST STRESS PERIOD

 REUSING EXDP FROM LAST STRESS PERIOD



                           RECHARGE
 READING ON UNIT   19 WITH FORMAT: (510E15.6)          

 SOLVING FOR HEAD 
                                                   Max.-Head-Change                        Max.-Flux-Residual
  Residual-Control   Outer-Iter.   Inner-Iter.     Column Row Layer    Max.-Head-Change    Column Row Layer    Max.-Flux-Residual            L2-New               L2-Old           Solver-Max-Delh
          0                 1           3           342  219     1       0.2921028479E+01     348  263    1       0.2079019089E+04      0.1130347262E+05      0.3946898470E+02      0.2921028479E+01
          0                 2           2           342  219     1      -0.2569512102E+00     348  263    1      -0.2089614494E+03      0.1133434361E+04      0.1130347262E+05     -0.2569512102E+00
          0                 3           2           232   93     1       0.9704364062E-01     348  263    1      -0.1045606564E+02      0.5670958759E+02      0.1133434361E+04      0.9704364062E-01

    ------------------------------------------------
       NWT REQUIRED            3 OUTER ITERATIONS 
       AND A TOTAL OF          7 INNER ITERATIONS.
    ------------------------------------------------

 NO OUTPUT CONTROL FOR STRESS PERIOD   59   TIME STEP    1

 WELLS WITH REDUCED PUMPING FOR STRESS PERIOD    59 TIME STEP     1
   LAY   ROW   COL         APPL.Q          ACT.Q        GW-HEAD       CELL-BOT
     1    77   213  -0.234339E+04  -0.112871E+04   0.153837E+03   0.148000E+03
     1    92    77  -0.234339E+04  -0.447792E+03  -0.862552E+02  -0.930000E+02
     1    94    77  -0.234339E+04  -0.571189E+03  -0.947261E+02  -0.102000E+03
     1    94    73  -0.234339E+04  -0.669249E+03  -0.668796E+02  -0.740000E+02


 SOLVING FOR HEAD 
                                                   Max.-Head-Change                        Max.-Flux-Residual
  Residual-Control   Outer-Iter.   Inner-Iter.     Column Row Layer    Max.-Head-Change    Column Row Layer    Max.-Flux-Residual            L2-New               L2-Old           Solver-Max-Delh
          0                 1           3           342  219     1       0.1193496566E+01     213   83    1      -0.8916501770E+03      0.7310689767E+04      0.5670958759E+02      0.1193496566E+01
          0                 2           2           342  219     1      -0.1042700288E+00     463  450    1      -0.1022416882E+03      0.7331972466E+03      0.7310689767E+04     -0.1042700288E+00
          0                 3           2           232   93     1       0.9324089202E-01     463  450    1      -0.5121489346E+01      0.3666615964E+02      0.7331972466E+03      0.9324089202E-01

    ------------------------------------------------
       NWT REQUIRED            3 OUTER ITERATIONS 
       AND A TOTAL OF          7 INNER ITERATIONS.
    ------------------------------------------------

 NO OUTPUT CONTROL FOR STRESS PERIOD   59   TIME STEP    2

 WELLS WITH REDUCED PUMPING FOR STRESS PERIOD    59 TIME STEP     2
   LAY   ROW   COL         APPL.Q          ACT.Q        GW-HEAD       CELL-BOT
     1    77   213  -0.234339E+04  -0.109756E+04   0.153731E+03   0.148000E+03
     1    92    77  -0.234339E+04  -0.446100E+03  -0.862696E+02  -0.930000E+02
     1    94    77  -0.234339E+04  -0.562162E+03  -0.947928E+02  -0.102000E+03
     1    94    73  -0.234339E+04  -0.657211E+03  -0.669555E+02  -0.740000E+02


 SOLVING FOR HEAD 
                                                   Max.-Head-Change                        Max.-Flux-Residual
  Residual-Control   Outer-Iter.   Inner-Iter.     Column Row Layer    Max.-Head-Change    Column Row Layer    Max.-Flux-Residual            L2-New               L2-Old           Solver-Max-Delh
          0                 1           3           342  219     1       0.5251859513E+00     213   83    1      -0.8780821598E+03      0.6390633185E+04      0.3666615964E+02      0.5251859513E+00
          0                 2           2           232   93     1       0.9254428145E-01     213   83    1       0.8778442222E+02      0.6392799077E+03      0.6390633185E+04      0.9254428145E-01

    ------------------------------------------------
       NWT REQUIRED            2 OUTER ITERATIONS 
       AND A TOTAL OF          5 INNER ITERATIONS.
    ------------------------------------------------

 NO OUTPUT CONTROL FOR STRESS PERIOD   59   TIME STEP    3

 WELLS WITH REDUCED PUMPING FOR STRESS PERIOD    59 TIME STEP     3
   LAY   ROW   COL         APPL.Q          ACT.Q        GW-HEAD       CELL-BOT
     1    77   213  -0.234339E+04  -0.106951E+04   0.153635E+03   0.148000E+03
     1    92    77  -0.234339E+04  -0.445229E+03  -0.862770E+02  -0.930000E+02
     1    94    77  -0.234339E+04  -0.553577E+03  -0.948566E+02  -0.102000E+03
     1    94    73  -0.234339E+04  -0.645862E+03  -0.670273E+02  -0.740000E+02


 SOLVING FOR HEAD 
                                                   Max.-Head-Change                        Max.-Flux-Residual
  Residual-Control   Outer-Iter.   Inner-Iter.     Column Row Layer    Max.-Head-Change    Column Row Layer    Max.-Flux-Residual            L2-New               L2-Old           Solver-Max-Delh
          0                 1           3           213   83     1      -0.3549903469E+00     213   83    1      -0.8647551755E+03      0.5960962506E+04      0.3196557481E+02     -0.3549903469E+00
          0                 2           2           232   93     1       0.9053555239E-01     213   83    1       0.8645221964E+02      0.5991656336E+03      0.5960962506E+04      0.9053555239E-01

    ------------------------------------------------
       NWT REQUIRED            2 OUTER ITERATIONS 
       AND A TOTAL OF          5 INNER ITERATIONS.
    ------------------------------------------------

 NO OUTPUT CONTROL FOR STRESS PERIOD   59   TIME STEP    4

 WELLS WITH REDUCED PUMPING FOR STRESS PERIOD    59 TIME STEP     4
   LAY   ROW   COL         APPL.Q          ACT.Q        GW-HEAD       CELL-BOT
     1    77   213  -0.234339E+04  -0.104439E+04   0.153549E+03   0.148000E+03
     1    92    77  -0.234339E+04  -0.444793E+03  -0.862807E+02  -0.930000E+02
     1    94    77  -0.234339E+04  -0.545448E+03  -0.949172E+02  -0.102000E+03
     1    94    73  -0.234339E+04  -0.635211E+03  -0.670951E+02  -0.740000E+02


 SOLVING FOR HEAD 
                                                   Max.-Head-Change                        Max.-Flux-Residual
  Residual-Control   Outer-Iter.   Inner-Iter.     Column Row Layer    Max.-Head-Change    Column Row Layer    Max.-Flux-Residual            L2-New               L2-Old           Solver-Max-Delh
          0                 1           3           213   83     1      -0.3496840799E+00     213   83    1      -0.8517239086E+03      0.5715328073E+04      0.2995869283E+02     -0.3496840799E+00
          0                 2           2           232   93     1       0.8723054743E-01     213   83    1       0.8514958155E+02      0.5715207729E+03      0.5715328073E+04      0.8723054743E-01

    ------------------------------------------------
       NWT REQUIRED            2 OUTER ITERATIONS 
       AND A TOTAL OF          5 INNER ITERATIONS.
    ------------------------------------------------

 NO OUTPUT CONTROL FOR STRESS PERIOD   59   TIME STEP    5

 WELLS WITH REDUCED PUMPING FOR STRESS PERIOD    59 TIME STEP     5
   LAY   ROW   COL         APPL.Q          ACT.Q        GW-HEAD       CELL-BOT
     1    77   213  -0.234339E+04  -0.102189E+04   0.153472E+03   0.148000E+03
     1    92    77  -0.234339E+04  -0.444583E+03  -0.862825E+02  -0.930000E+02
     1    94    77  -0.234339E+04  -0.537750E+03  -0.949749E+02  -0.102000E+03
     1    94    73  -0.234339E+04  -0.625212E+03  -0.671590E+02  -0.740000E+02


 SOLVING FOR HEAD 
                                                   Max.-Head-Change                        Max.-Flux-Residual
  Residual-Control   Outer-Iter.   Inner-Iter.     Column Row Layer    Max.-Head-Change    Column Row Layer    Max.-Flux-Residual            L2-New               L2-Old           Solver-Max-Delh
          0                 1           3           213   83     1      -0.3444938422E+00     213   83    1      -0.8389795953E+03      0.5556502834E+04      0.2857612940E+02     -0.3444938422E+00
          0                 2           2           232   93     1       0.8279623396E-01     213   83    1       0.8387563032E+02      0.5556411289E+03      0.5556502834E+04      0.8279623396E-01

    ------------------------------------------------
       NWT REQUIRED            2 OUTER ITERATIONS 
       AND A TOTAL OF          5 INNER ITERATIONS.
    ------------------------------------------------

 NO OUTPUT CONTROL FOR STRESS PERIOD   59   TIME STEP    6

 WELLS WITH REDUCED PUMPING FOR STRESS PERIOD    59 TIME STEP     6
   LAY   ROW   COL         APPL.Q          ACT.Q        GW-HEAD       CELL-BOT
     1    77   213  -0.234339E+04  -0.100173E+04   0.153403E+03   0.148000E+03
     1    92    77  -0.234339E+04  -0.444490E+03  -0.862833E+02  -0.930000E+02
     1    94    77  -0.234339E+04  -0.530457E+03  -0.950298E+02  -0.102000E+03
     1    94    73  -0.234339E+04  -0.615820E+03  -0.672193E+02  -0.740000E+02


 SOLVING FOR HEAD 
                                                   Max.-Head-Change                        Max.-Flux-Residual
  Residual-Control   Outer-Iter.   Inner-Iter.     Column Row Layer    Max.-Head-Change    Column Row Layer    Max.-Flux-Residual            L2-New               L2-Old           Solver-Max-Delh
          0                 1           3           213   83     1      -0.3394165083E+00     213   83    1      -0.8265142526E+03      0.5444380305E+04      0.2778199911E+02     -0.3394165083E+00
          0                 2           2           232   93     1       0.7741154586E-01     213   83    1       0.8262956716E+02      0.5444236735E+03      0.5444380305E+04      0.7741154586E-01

    ------------------------------------------------
       NWT REQUIRED            2 OUTER ITERATIONS 
       AND A TOTAL OF          5 INNER ITERATIONS.
    ------------------------------------------------

 NO OUTPUT CONTROL FOR STRESS PERIOD   59   TIME STEP    7

 WELLS WITH REDUCED PUMPING FOR STRESS PERIOD    59 TIME STEP     7
   LAY   ROW   COL         APPL.Q          ACT.Q        GW-HEAD       CELL-BOT
     1    77   213  -0.234339E+04  -0.983653E+03   0.153341E+03   0.148000E+03
     1    92    77  -0.234339E+04  -0.444457E+03  -0.862836E+02  -0.930000E+02
     1    94    77  -0.234339E+04  -0.523543E+03  -0.950821E+02  -0.102000E+03
     1    94    73  -0.234339E+04  -0.606994E+03  -0.672762E+02  -0.740000E+02


 SOLVING FOR HEAD 
                                                   Max.-Head-Change                        Max.-Flux-Residual
  Residual-Control   Outer-Iter.   Inner-Iter.     Column Row Layer    Max.-Head-Change    Column Row Layer    Max.-Flux-Residual            L2-New               L2-Old           Solver-Max-Delh
          0                 1           3           213   83     1      -0.3344491719E+00     213   83    1      -0.8143204938E+03      0.5359903017E+04      0.2722105994E+02     -0.3344491719E+00
          0                 2           2           232   93     1       0.7130611389E-01     213   83    1       0.8141065300E+02      0.5359648418E+03      0.5359903017E+04      0.7130611389E-01

    ------------------------------------------------
       NWT REQUIRED            2 OUTER ITERATIONS 
       AND A TOTAL OF          5 INNER ITERATIONS.
    ------------------------------------------------

 NO OUTPUT CONTROL FOR STRESS PERIOD   59   TIME STEP    8

 WELLS WITH REDUCED PUMPING FOR STRESS PERIOD    59 TIME STEP     8
   LAY   ROW   COL         APPL.Q          ACT.Q        GW-HEAD       CELL-BOT
     1    77   213  -0.234339E+04  -0.967438E+03   0.153285E+03   0.148000E+03
     1    92    77  -0.234339E+04  -0.444455E+03  -0.862836E+02  -0.930000E+02
     1    94    77  -0.234339E+04  -0.516989E+03  -0.951319E+02  -0.102000E+03
     1    94    73  -0.234339E+04  -0.598698E+03  -0.673299E+02  -0.740000E+02


 SOLVING FOR HEAD 
                                                   Max.-Head-Change                        Max.-Flux-Residual
  Residual-Control   Outer-Iter.   Inner-Iter.     Column Row Layer    Max.-Head-Change    Column Row Layer    Max.-Flux-Residual            L2-New               L2-Old           Solver-Max-Delh
          0                 1           3           213   83     1      -0.3295888914E+00     213   83    1      -0.8023908782E+03      0.5293044184E+04      0.2679808726E+02     -0.3295888914E+00
          0                 2           2           232   93     1       0.6470363262E-01     213   83    1       0.8021814355E+02      0.5292814294E+03      0.5293044184E+04      0.6470363262E-01

    ------------------------------------------------
       NWT REQUIRED            2 OUTER ITERATIONS 
       AND A TOTAL OF          5 INNER ITERATIONS.
    ------------------------------------------------

 NO OUTPUT CONTROL FOR STRESS PERIOD   59   TIME STEP    9

 WELLS WITH REDUCED PUMPING FOR STRESS PERIOD    59 TIME STEP     9
   LAY   ROW   COL         APPL.Q          ACT.Q        GW-HEAD       CELL-BOT
     1    77   213  -0.234339E+04  -0.952884E+03   0.153235E+03   0.148000E+03
     1    92    77  -0.234339E+04  -0.444467E+03  -0.862835E+02  -0.930000E+02
     1    94    77  -0.234339E+04  -0.510771E+03  -0.951793E+02  -0.102000E+03
     1    94    73  -0.234339E+04  -0.590896E+03  -0.673806E+02  -0.740000E+02


 SOLVING FOR HEAD 
                                                   Max.-Head-Change                        Max.-Flux-Residual
  Residual-Control   Outer-Iter.   Inner-Iter.     Column Row Layer    Max.-Head-Change    Column Row Layer    Max.-Flux-Residual            L2-New               L2-Old           Solver-Max-Delh
          0                 1           3           213   83     1      -0.3248331058E+00     213   83    1      -0.7907189265E+03      0.5238102731E+04      0.2646390195E+02     -0.3248331058E+00
          0                 2           2           232   93     1       0.5784417219E-01     213   83    1       0.7905139070E+02      0.5237853473E+03      0.5238102731E+04      0.5784417219E-01

    ------------------------------------------------
       NWT REQUIRED            2 OUTER ITERATIONS 
       AND A TOTAL OF          5 INNER ITERATIONS.
    ------------------------------------------------

 OUTPUT CONTROL FOR STRESS PERIOD   59   TIME STEP   10
    SAVE HEAD FOR ALL LAYERS

 WELLS WITH REDUCED PUMPING FOR STRESS PERIOD    59 TIME STEP    10
   LAY   ROW   COL         APPL.Q          ACT.Q        GW-HEAD       CELL-BOT
     1    77   213  -0.234339E+04  -0.939813E+03   0.153190E+03   0.148000E+03
     1    92    77  -0.234339E+04  -0.444487E+03  -0.862834E+02  -0.930000E+02
     1    94    77  -0.234339E+04  -0.504872E+03  -0.952244E+02  -0.102000E+03
     1    94    73  -0.234339E+04  -0.583555E+03  -0.674285E+02  -0.740000E+02


 HEAD WILL BE SAVED ON UNIT   51 AT END OF TIME STEP   10, STRESS PERIOD   59
1
  VOLUMETRIC BUDGET FOR ENTIRE MODEL AT END OF TIME STEP   10, STRESS PERIOD  59
  ------------------------------------------------------------------------------

     CUMULATIVE VOLUMES      L**3       RATES FOR THIS TIME STEP      L**3/T
     ------------------                 ------------------------

           IN:                                      IN:
           ---                                      ---
             STORAGE =   591673856.0000               STORAGE =      278099.3438
       CONSTANT HEAD =    91045456.0000         CONSTANT HEAD =       52098.5156
               WELLS =           0.0000                 WELLS =           0.0000
              DRAINS =           0.0000                DRAINS =           0.0000
                  ET =           0.0000                    ET =           0.0000
            RECHARGE =   344371648.0000              RECHARGE =      235747.4531

            TOTAL IN =  1027090944.0000              TOTAL IN =      565945.3125

          OUT:                                     OUT:
          ----                                     ----
             STORAGE =   194533680.0000               STORAGE =       25599.4082
       CONSTANT HEAD =           0.0000         CONSTANT HEAD =           0.0000
               WELLS =   543504256.0000                 WELLS =      401997.0000
              DRAINS =   203880432.0000                DRAINS =       98379.7422
                  ET =    83902808.0000                    ET =       38711.6914
            RECHARGE =       81860.0000              RECHARGE =           0.0000

           TOTAL OUT =  1025903040.0000             TOTAL OUT =      564687.8125

            IN - OUT =     1187904.0000              IN - OUT =        1257.5000

 PERCENT DISCREPANCY =           0.12     PERCENT DISCREPANCY =           0.22






         TIME SUMMARY AT END OF TIME STEP   10 IN STRESS PERIOD   59
                    SECONDS     MINUTES      HOURS       DAYS        YEARS
                    -----------------------------------------------------------
   TIME STEP LENGTH 2.62656E+05  4377.6      72.960      3.0400     8.32307E-03
 STRESS PERIOD TIME 2.62656E+06  43776.      729.60      30.400     8.32307E-02
         TOTAL TIME 1.54968E+08 2.58279E+06  43047.      1793.6      4.9106    
1
1
                            STRESS PERIOD NO.   60, LENGTH =   30.40000    
                            -----------------------------------------------

                              NUMBER OF TIME STEPS =    10

                               MULTIPLIER FOR DELT =     1.000

                            INITIAL TIME STEP SIZE =   3.040000    

 WELL NO.  LAYER   ROW   COL   STRESS RATE         
 --------------------------------------------------
      1      1     69    225      -5098.    
      2      1     71    224       0.000    
      3      1     74    220       0.000    
      4      1     73    220       0.000    
      5      1     71    223       0.000    
      6      1     71    223       0.000    
      7      1     72    223       0.000    
      8      1     92    173       0.000    
      9      1     94    174       0.000    
     10      1     93    175       0.000    
     11      1    203    328       0.000    
     12      1    438    460      -0.000    
     13      1    436    461      -0.000    
     14      1    410    454      -0.000    
     15      1    433    460      -0.000    
     16      1    431    462      -0.000    
     17      1    417    459      -0.000    
     18      1    418    458      -0.000    
     19      1    414    455      -0.000    
     20      1    443    464      -0.000    
     21      1    379    425      -0.000    
     22      1    362    405      -0.000    
     23      1    361    405      -0.000    
     24      1    362    406      -0.000    
     25      1    363    408      -0.000    
     26      1    364    410      -0.000    
     27      1    369    418      -0.000    
     28      1    367    417      -0.000    
     29      1    365    415      -0.000    
     30      1    402    447      -0.000    
     31      1    400    446      -0.000    
     32      1    392    444      -0.000    
     33      1    391    441      -0.000    
     34      1    403    448      -0.000    
     35      1    405    447      -0.000    
     36      1    362    410      -0.000    
     37      1    362    411      -0.000    
     38      1    363    412      -0.000    
     39      1    375    421      -0.000    
     40      1    383    430      -0.000    
     41      1    397    445      -0.000    
     42      1    360    403      -0.000    
     43      1    350    401      -0.000    
     44      1    346    393      -49.88    
     45      1    333    387      -49.88    
     46      1    328    384      -49.88    
     47      1    326    383      -49.88    
     48      1    323    378      -49.88    
     49      1    321    378      -49.88    
     50      1    322    376      -49.88    
     51      1    316    374      -49.88    
     52      1    311    371      -49.88    
     53      1    307    369      -49.88    
     54      1    305    368      -49.88    
     55      1    303    368      -49.88    
     56      1    300    369      -49.88    
     57      1    293    364      -49.88    
     58      1    292    362      -49.88    
     59      1    278    350      -49.88    
     60      1    274    351      -49.88    
     61      1    273    350      -49.88    
     62      1    271    350      -49.88    
     63      1    267    348      -49.88    
     64      1    263    348      -49.88    
     65      1    263    348      -49.88    
     66      1    248    347      -49.88    
     67      1    243    342      -49.88    
     68      1    242    339      -49.88    
     69      1    238    341      -49.88    
     70      1    233    340      -49.88    
     71      1    232    340      -49.88    
     72      1    229    341      -49.88    
     73      1    227    341      -49.88    
     74      1    219    342      -49.88    
     75      1    219    336      -49.88    
     76      1    199    329      -49.88    
     77      1    191    332      -0.000    
     78      1    190    332      -0.000    
     79      1    130    310      -0.000    
     80      1    123    305      -0.000    
     81      1    104    289      -0.000    
     82      1     96    287      -510.6    
     83      1     95    284      -510.6    
     84      1     95    280      -510.6    
     85      1     93    276      -510.6    
     86      1     94    275      -510.6    
     87      1     90    277      -510.6    
     88      1     90    273      -510.6    
     89      1     86    271      -510.6    
     90      1     85    270      -510.6    
     91      1     84    265      -510.6    
     92      1     85    265      -510.6    
     93      1     84    264      -510.6    
     94      1     79    263      -510.6    
     95      1     79    263      -510.6    
     96      1     76    262      -510.6    
     97      1     73    257      -510.6    
     98      1     74    255      -510.6    
     99      1     71    255      -510.6    
    100      1     66    253      -510.6    
    101      1     68    252      -510.6    
    102      1     69    250      -510.6    
    103      1     65    248      -510.6    
    104      1     68    248      -510.6    
    105      1     69    247      -510.6    
    106      1     73    247      -510.6    
    107      1     64    246      -510.6    
    108      1     69    245      -510.6    
    109      1     72    245      -510.6    
    110      1     69    241      -510.6    
    111      1     73    238      -510.6    
    112      1     70    238      -510.6    
    113      1     76    263      -510.6    
    114      1     66    232      -620.9    
    115      1     69    229      -620.9    
    116      1     71    228      -620.9    
    117      1     69    227      -620.9    
    118      1     72    219      -620.9    
    119      1     72    218      -620.9    
    120      1     72    218      -620.9    
    121      1     73    217      -620.9    
    122      1     77    219      -620.9    
    123      1     78    219      -620.9    
    124      1     83    213      -620.9    
    125      1     77    213      -620.9    
    126      1     81    211      -620.9    
    127      1     81    210      -620.9    
    128      1     81    210      -620.9    
    129      1     82    208      -620.9    
    130      1     80    205      -620.9    
    131      1     86    202      -620.9    
    132      1     84    200      -620.9    
    133      1     89    200      -620.9    
    134      1     89    199      -620.9    
    135      1     88    199      -620.9    
    136      1     86    199      -620.9    
    137      1     85    199      -620.9    
    138      1     82    197      -620.9    
    139      1     86    197      -620.9    
    140      1     88    198      -620.9    
    141      1     90    192      -620.9    
    142      1     89    191      -620.9    
    143      1     84    192      -620.9    
    144      1     91    189      -620.9    
    145      1     92    185      -620.9    
    146      1     87    183      -620.9    
    147      1     92    182      -620.9    
    148      1     90    182      -620.9    
    149      1     88    179      -620.9    
    150      1     89    176      -620.9    
    151      1     92    172      -620.9    
    152      1     93    164      -620.9    
    153      1     94    162      -620.9    
    154      1    103    156      -620.9    
    155      1    103    156      -620.9    
    156      1     96    154      -620.9    
    157      1     97    153      -620.9    
    158      1    122    139      -620.9    
    159      1     92     77      -620.9    
    160      1     94     77      -620.9    
    161      1     94     73      -620.9    
    162      1     97    152      -620.9    
    163      1    118    337      -666.7    
    164      1    133    319      -2678.    
    165      1    131    320      -3951.    
    166      1    133    321      -2956.    
    167      1    161    329      -2141.    
    168      1    178    330      -551.0    
    169      1    163    330      -1122.    
    170      1    131    320      -2473.    
    171      1    129    315      -3937.    
    172      1    162    329      -1959.    
    173      1    131    311      -826.1    
    174      1    221    340      -1994.    
    175      1    220    340      -1034.    
    176      1    221    340      -667.7    
    177      1    137    322      -2082.    
    178      1    137    321      -1407.    
    179      1    185    329      -2012.    
    180      1    183    329      -1473.    
    181      1    175    329      -585.3    
    182      1     79    243      -1490.    
    183      1     77    245      -2414.    
    184      1    199    329      -1617.    
    185      1    198    330      -2514.    
    186      1    140    328      -972.1    
    187      1    143    327      -863.6    
    188      1    139    327      -1331.    

    188 WELLS

 REUSING NON-PARAMETER DRAINS FROM LAST STRESS PERIOD

   1061 DRAINS

 REUSING SURF FROM LAST STRESS PERIOD

 REUSING EVTR FROM LAST STRESS PERIOD

 REUSING EXDP FROM LAST STRESS PERIOD



                           RECHARGE
 READING ON UNIT   19 WITH FORMAT: (510E15.6)          

 SOLVING FOR HEAD 
                                                   Max.-Head-Change                        Max.-Flux-Residual
  Residual-Control   Outer-Iter.   Inner-Iter.     Column Row Layer    Max.-Head-Change    Column Row Layer    Max.-Flux-Residual            L2-New               L2-Old           Solver-Max-Delh
          0                 1           3           263   79     1       0.2038386573E+02     263   79    1       0.6513934871E+04      0.2835071138E+05      0.2618909132E+02      0.2038386573E+02
          0                 2           2           263   79     1      -0.1970049535E+01     263   79    1      -0.7556757185E+03      0.2954480136E+04      0.2835071138E+05     -0.1970049535E+01
          0                 3           2           263   79     1      -0.1009336562E+00     263   79    1      -0.3866711343E+02      0.1511210727E+03      0.2954480136E+04     -0.1009336562E+00
          0                 4           2           232   93     1       0.4199573647E-01     263   79    1      -0.1935253503E+01      0.7588483096E+01      0.1511210727E+03      0.4199573647E-01

    ------------------------------------------------
       NWT REQUIRED            4 OUTER ITERATIONS 
       AND A TOTAL OF          9 INNER ITERATIONS.
    ------------------------------------------------

 NO OUTPUT CONTROL FOR STRESS PERIOD   60   TIME STEP    1

 WELLS WITH REDUCED PUMPING FOR STRESS PERIOD    60 TIME STEP     1
   LAY   ROW   COL         APPL.Q          ACT.Q        GW-HEAD       CELL-BOT
     1    77   213  -0.620891E+03  -0.264453E+03   0.153391E+03   0.148000E+03
     1    92    77  -0.620891E+03  -0.177441E+03  -0.844927E+02  -0.930000E+02
     1    94    77  -0.620891E+03  -0.136743E+03  -0.951386E+02  -0.102000E+03
     1    94    73  -0.620891E+03  -0.158868E+03  -0.673240E+02  -0.740000E+02


 SOLVING FOR HEAD 
                                                   Max.-Head-Change                        Max.-Flux-Residual
  Residual-Control   Outer-Iter.   Inner-Iter.     Column Row Layer    Max.-Head-Change    Column Row Layer    Max.-Flux-Residual            L2-New               L2-Old           Solver-Max-Delh
          0                 1           3           263   79     1       0.8519193758E+01     263   79    1       0.2617478957E+04      0.1245649020E+05      0.7588483096E+01      0.8519193758E+01
          0                 2           2           263   79     1      -0.7900153443E+00     263   79    1      -0.2885345699E+03      0.1266405644E+04      0.1245649020E+05     -0.7900153443E+00
          0                 3           2           263   79     1      -0.4010756882E-01     263   79    1      -0.1464881589E+02      0.6338972572E+02      0.1266405644E+04     -0.4010756882E-01

    ------------------------------------------------
       NWT REQUIRED            3 OUTER ITERATIONS 
       AND A TOTAL OF          7 INNER ITERATIONS.
    ------------------------------------------------

 NO OUTPUT CONTROL FOR STRESS PERIOD   60   TIME STEP    2

 WELLS WITH REDUCED PUMPING FOR STRESS PERIOD    60 TIME STEP     2
   LAY   ROW   COL         APPL.Q          ACT.Q        GW-HEAD       CELL-BOT
     1    77   213  -0.620891E+03  -0.279465E+03   0.153585E+03   0.148000E+03
     1    92    77  -0.620891E+03  -0.227627E+03  -0.831150E+02  -0.930000E+02
     1    94    77  -0.620891E+03  -0.139697E+03  -0.950540E+02  -0.102000E+03
     1    94    73  -0.620891E+03  -0.163083E+03  -0.672213E+02  -0.740000E+02


 SOLVING FOR HEAD 
                                                   Max.-Head-Change                        Max.-Flux-Residual
  Residual-Control   Outer-Iter.   Inner-Iter.     Column Row Layer    Max.-Head-Change    Column Row Layer    Max.-Flux-Residual            L2-New               L2-Old           Solver-Max-Delh
          0                 1           3           263   79     1       0.3830672558E+01     156  103    1       0.2093603241E+04      0.9297948101E+04      0.6338972572E+02      0.3830672558E+01
          0                 2           2           263   79     1      -0.3516524038E+00     156  103    1      -0.2094984863E+03      0.9394133524E+03      0.9297948101E+04     -0.3516524038E+00
          0                 3           2           232   93     1       0.2520461219E-01     156  103    1      -0.1047594999E+02      0.4700751172E+02      0.9394133524E+03      0.2520461219E-01

    ------------------------------------------------
       NWT REQUIRED            3 OUTER ITERATIONS 
       AND A TOTAL OF          7 INNER ITERATIONS.
    ------------------------------------------------

 NO OUTPUT CONTROL FOR STRESS PERIOD   60   TIME STEP    3

 WELLS WITH REDUCED PUMPING FOR STRESS PERIOD    60 TIME STEP     3
   LAY   ROW   COL         APPL.Q          ACT.Q        GW-HEAD       CELL-BOT
     1    77   213  -0.620891E+03  -0.294016E+03   0.153772E+03   0.148000E+03
     1    92    77  -0.620891E+03  -0.267453E+03  -0.820641E+02  -0.930000E+02
     1    94    77  -0.620891E+03  -0.142628E+03  -0.949707E+02  -0.102000E+03
     1    94    73  -0.620891E+03  -0.167257E+03  -0.671203E+02  -0.740000E+02


 SOLVING FOR HEAD 
                                                   Max.-Head-Change                        Max.-Flux-Residual
  Residual-Control   Outer-Iter.   Inner-Iter.     Column Row Layer    Max.-Head-Change    Column Row Layer    Max.-Flux-Residual            L2-New               L2-Old           Solver-Max-Delh
          0                 1           3           263   79     1       0.1882119915E+01     378  321    1       0.1771962070E+04      0.7739295478E+04      0.4700751172E+02      0.1882119915E+01
          0                 2           2           263   79     1      -0.1658796394E+00     378  321    1      -0.1772937053E+03      0.7766439974E+03      0.7739295478E+04     -0.1658796394E+00
          0                 3           2           232   93     1       0.1891930020E-01     378  321    1      -0.8865408252E+01      0.3887284436E+02      0.7766439974E+03      0.1891930020E-01

    ------------------------------------------------
       NWT REQUIRED            3 OUTER ITERATIONS 
       AND A TOTAL OF          7 INNER ITERATIONS.
    ------------------------------------------------

 NO OUTPUT CONTROL FOR STRESS PERIOD   60   TIME STEP    4

 WELLS WITH REDUCED PUMPING FOR STRESS PERIOD    60 TIME STEP     4
   LAY   ROW   COL         APPL.Q          ACT.Q        GW-HEAD       CELL-BOT
     1    77   213  -0.620891E+03  -0.308087E+03   0.153953E+03   0.148000E+03
     1    92    77  -0.620891E+03  -0.298202E+03  -0.812652E+02  -0.930000E+02
     1    94    77  -0.620891E+03  -0.145535E+03  -0.948886E+02  -0.102000E+03
     1    94    73  -0.620891E+03  -0.171388E+03  -0.670210E+02  -0.740000E+02


 SOLVING FOR HEAD 
                                                   Max.-Head-Change                        Max.-Flux-Residual
  Residual-Control   Outer-Iter.   Inner-Iter.     Column Row Layer    Max.-Head-Change    Column Row Layer    Max.-Flux-Residual            L2-New               L2-Old           Solver-Max-Delh
          0                 1           3           263   78     1       0.1151188716E+01     378  321    1       0.1612652106E+04      0.6763484946E+04      0.3887284436E+02      0.1151188716E+01
          0                 2           2           264   78     1      -0.1008367956E+00     378  321    1      -0.1613637234E+03      0.6815173339E+03      0.6763484946E+04     -0.1008367956E+00
          0                 3           2           232   93     1       0.1390549734E-01     378  321    1      -0.8068917225E+01      0.3407947448E+02      0.6815173339E+03      0.1390549734E-01

    ------------------------------------------------
       NWT REQUIRED            3 OUTER ITERATIONS 
       AND A TOTAL OF          7 INNER ITERATIONS.
    ------------------------------------------------

 NO OUTPUT CONTROL FOR STRESS PERIOD   60   TIME STEP    5

 WELLS WITH REDUCED PUMPING FOR STRESS PERIOD    60 TIME STEP     5
   LAY   ROW   COL         APPL.Q          ACT.Q        GW-HEAD       CELL-BOT
     1    77   213  -0.620891E+03  -0.321670E+03   0.154128E+03   0.148000E+03
     1    92    77  -0.620891E+03  -0.321642E+03  -0.806585E+02  -0.930000E+02
     1    94    77  -0.620891E+03  -0.148417E+03  -0.948076E+02  -0.102000E+03
     1    94    73  -0.620891E+03  -0.175476E+03  -0.669234E+02  -0.740000E+02


 SOLVING FOR HEAD 
                                                   Max.-Head-Change                        Max.-Flux-Residual
  Residual-Control   Outer-Iter.   Inner-Iter.     Column Row Layer    Max.-Head-Change    Column Row Layer    Max.-Flux-Residual            L2-New               L2-Old           Solver-Max-Delh
          0                 1           3           264   78     1       0.9696441474E+00     378  321    1       0.1471917142E+04      0.6077574056E+04      0.3407947448E+02      0.9696441474E+00
          0                 2           2           264   78     1      -0.8508479105E-01     378  321    1      -0.1472873706E+03      0.6081399830E+03      0.6077574056E+04     -0.8508479105E-01

    ------------------------------------------------
       NWT REQUIRED            2 OUTER ITERATIONS 
       AND A TOTAL OF          5 INNER ITERATIONS.
    ------------------------------------------------

 NO OUTPUT CONTROL FOR STRESS PERIOD   60   TIME STEP    6

 WELLS WITH REDUCED PUMPING FOR STRESS PERIOD    60 TIME STEP     6
   LAY   ROW   COL         APPL.Q          ACT.Q        GW-HEAD       CELL-BOT
     1    77   213  -0.620891E+03  -0.334821E+03   0.154297E+03   0.148000E+03
     1    92    77  -0.620891E+03  -0.339496E+03  -0.801955E+02  -0.930000E+02
     1    94    77  -0.620891E+03  -0.151288E+03  -0.947275E+02  -0.102000E+03
     1    94    73  -0.620891E+03  -0.179537E+03  -0.668271E+02  -0.740000E+02


 SOLVING FOR HEAD 
                                                   Max.-Head-Change                        Max.-Flux-Residual
  Residual-Control   Outer-Iter.   Inner-Iter.     Column Row Layer    Max.-Head-Change    Column Row Layer    Max.-Flux-Residual            L2-New               L2-Old           Solver-Max-Delh
          0                 1           3           264   78     1       0.8013592723E+00     378  321    1       0.1346555145E+04      0.5559031830E+04      0.3040799510E+02      0.8013592723E+00
          0                 2           2           264   78     1      -0.7018610259E-01     378  321    1      -0.1347461305E+03      0.5561865999E+03      0.5559031830E+04     -0.7018610259E-01

    ------------------------------------------------
       NWT REQUIRED            2 OUTER ITERATIONS 
       AND A TOTAL OF          5 INNER ITERATIONS.
    ------------------------------------------------

 NO OUTPUT CONTROL FOR STRESS PERIOD   60   TIME STEP    7

 WELLS WITH REDUCED PUMPING FOR STRESS PERIOD    60 TIME STEP     7
   LAY   ROW   COL         APPL.Q          ACT.Q        GW-HEAD       CELL-BOT
     1    77   213  -0.620891E+03  -0.347473E+03   0.154460E+03   0.148000E+03
     1    92    77  -0.620891E+03  -0.352981E+03  -0.798444E+02  -0.930000E+02
     1    94    77  -0.620891E+03  -0.154131E+03  -0.946486E+02  -0.102000E+03
     1    94    73  -0.620891E+03  -0.183551E+03  -0.667324E+02  -0.740000E+02


 SOLVING FOR HEAD 
                                                   Max.-Head-Change                        Max.-Flux-Residual
  Residual-Control   Outer-Iter.   Inner-Iter.     Column Row Layer    Max.-Head-Change    Column Row Layer    Max.-Flux-Residual            L2-New               L2-Old           Solver-Max-Delh
          0                 1           3           264   78     1       0.6600523048E+00     378  321    1       0.1235121500E+04      0.5153287210E+04      0.2781108820E+02      0.6600523048E+00
          0                 2           2           264   78     1      -0.5767543340E-01     378  321    1      -0.1235966303E+03      0.5155744427E+03      0.5153287210E+04     -0.5767543340E-01

    ------------------------------------------------
       NWT REQUIRED            2 OUTER ITERATIONS 
       AND A TOTAL OF          5 INNER ITERATIONS.
    ------------------------------------------------

 NO OUTPUT CONTROL FOR STRESS PERIOD   60   TIME STEP    8

 WELLS WITH REDUCED PUMPING FOR STRESS PERIOD    60 TIME STEP     8
   LAY   ROW   COL         APPL.Q          ACT.Q        GW-HEAD       CELL-BOT
     1    77   213  -0.620891E+03  -0.359629E+03   0.154618E+03   0.148000E+03
     1    92    77  -0.620891E+03  -0.363161E+03  -0.795781E+02  -0.930000E+02
     1    94    77  -0.620891E+03  -0.156948E+03  -0.945708E+02  -0.102000E+03
     1    94    73  -0.620891E+03  -0.187516E+03  -0.666395E+02  -0.740000E+02


 SOLVING FOR HEAD 
                                                   Max.-Head-Change                        Max.-Flux-Residual
  Residual-Control   Outer-Iter.   Inner-Iter.     Column Row Layer    Max.-Head-Change    Column Row Layer    Max.-Flux-Residual            L2-New               L2-Old           Solver-Max-Delh
          0                 1           3           264   78     1       0.5465333514E+00     378  321    1       0.1135771126E+04      0.4825958482E+04      0.2577960064E+02      0.5465333514E+00
          0                 2           2           264   78     1      -0.4765165288E-01     378  321    1      -0.1136550315E+03      0.4827080190E+03      0.4825958482E+04     -0.4765165288E-01

    ------------------------------------------------
       NWT REQUIRED            2 OUTER ITERATIONS 
       AND A TOTAL OF          5 INNER ITERATIONS.
    ------------------------------------------------

 NO OUTPUT CONTROL FOR STRESS PERIOD   60   TIME STEP    9

 WELLS WITH REDUCED PUMPING FOR STRESS PERIOD    60 TIME STEP     9
   LAY   ROW   COL         APPL.Q          ACT.Q        GW-HEAD       CELL-BOT
     1    77   213  -0.620891E+03  -0.371296E+03   0.154770E+03   0.148000E+03
     1    92    77  -0.620891E+03  -0.370843E+03  -0.793763E+02  -0.930000E+02
     1    94    77  -0.620891E+03  -0.159737E+03  -0.944943E+02  -0.102000E+03
     1    94    73  -0.620891E+03  -0.191432E+03  -0.665481E+02  -0.740000E+02


 SOLVING FOR HEAD 
                                                   Max.-Head-Change                        Max.-Flux-Residual
  Residual-Control   Outer-Iter.   Inner-Iter.     Column Row Layer    Max.-Head-Change    Column Row Layer    Max.-Flux-Residual            L2-New               L2-Old           Solver-Max-Delh
          0                 1           3           343  217     1       0.4843201820E+00     378  321    1       0.1046948775E+04      0.4555812663E+04      0.4827080190E+03      0.4843201820E+00
          0                 2           2           343  217     1      -0.4203810134E-01     378  321    1      -0.1047662154E+03      0.4557651342E+03      0.4555812663E+04     -0.4203810134E-01

    ------------------------------------------------
       NWT REQUIRED            2 OUTER ITERATIONS 
       AND A TOTAL OF          5 INNER ITERATIONS.
    ------------------------------------------------

 OUTPUT CONTROL FOR STRESS PERIOD   60   TIME STEP   10
    SAVE HEAD FOR ALL LAYERS

 WELLS WITH REDUCED PUMPING FOR STRESS PERIOD    60 TIME STEP    10
   LAY   ROW   COL         APPL.Q          ACT.Q        GW-HEAD       CELL-BOT
     1    77   213  -0.620891E+03  -0.382482E+03   0.154917E+03   0.148000E+03
     1    92    77  -0.620891E+03  -0.376637E+03  -0.792235E+02  -0.930000E+02
     1    94    77  -0.620891E+03  -0.162498E+03  -0.944189E+02  -0.102000E+03
     1    94    73  -0.620891E+03  -0.195298E+03  -0.664584E+02  -0.740000E+02


 HEAD WILL BE SAVED ON UNIT   51 AT END OF TIME STEP   10, STRESS PERIOD   60
1
  VOLUMETRIC BUDGET FOR ENTIRE MODEL AT END OF TIME STEP   10, STRESS PERIOD  60
  ------------------------------------------------------------------------------

     CUMULATIVE VOLUMES      L**3       RATES FOR THIS TIME STEP      L**3/T
     ------------------                 ------------------------

           IN:                                      IN:
           ---                                      ---
             STORAGE =   596479680.0000               STORAGE =      130371.5000
       CONSTANT HEAD =    92629352.0000         CONSTANT HEAD =       52104.2578
               WELLS =           0.0000                 WELLS =           0.0000
              DRAINS =           0.0000                DRAINS =           0.0000
                  ET =           0.0000                    ET =           0.0000
            RECHARGE =   349207488.0000              RECHARGE =      159072.9531

            TOTAL IN =  1038316544.0000              TOTAL IN =      341548.6875

          OUT:                                     OUT:
          ----                                     ----
             STORAGE =   198456480.0000               STORAGE =       96337.0703
       CONSTANT HEAD =           0.0000         CONSTANT HEAD =           0.0000
               WELLS =   546445248.0000                 WELLS =       96897.1250
              DRAINS =   207026368.0000                DRAINS =      107121.7109
                  ET =    85116224.0000                    ET =       41027.4492
            RECHARGE =       81860.0000              RECHARGE =           0.0000

           TOTAL OUT =  1037126208.0000             TOTAL OUT =      341383.3438

            IN - OUT =     1190336.0000              IN - OUT =         165.3438

 PERCENT DISCREPANCY =           0.11     PERCENT DISCREPANCY =           0.05






         TIME SUMMARY AT END OF TIME STEP   10 IN STRESS PERIOD   60
                    SECONDS     MINUTES      HOURS       DAYS        YEARS
                    -----------------------------------------------------------
   TIME STEP LENGTH 2.62656E+05  4377.6      72.960      3.0400     8.32307E-03
 STRESS PERIOD TIME 2.62656E+06  43776.      729.60      30.400     8.32307E-02
         TOTAL TIME 1.57594E+08 2.62657E+06  43776.      1824.0      4.9939    
1
1
                            STRESS PERIOD NO.   61, LENGTH =   30.40000    
                            -----------------------------------------------

                              NUMBER OF TIME STEPS =    10

                               MULTIPLIER FOR DELT =     1.000

                            INITIAL TIME STEP SIZE =   3.040000    

 WELL NO.  LAYER   ROW   COL   STRESS RATE         
 --------------------------------------------------
      1      1     69    225      -5184.    
      2      1     71    224       0.000    
      3      1     74    220       0.000    
      4      1     73    220       0.000    
      5      1     71    223       0.000    
      6      1     71    223       0.000    
      7      1     72    223       0.000    
      8      1     92    173       0.000    
      9      1     94    174       0.000    
     10      1     93    175       0.000    
     11      1    203    328       0.000    
     12      1    438    460      -550.5    
     13      1    436    461      -550.5    
     14      1    410    454      -550.5    
     15      1    433    460      -550.5    
     16      1    431    462      -550.5    
     17      1    417    459      -550.5    
     18      1    418    458      -550.5    
     19      1    414    455      -550.5    
     20      1    443    464      -550.5    
     21      1    379    425      -550.5    
     22      1    362    405      -550.5    
     23      1    361    405      -550.5    
     24      1    362    406      -550.5    
     25      1    363    408      -550.5    
     26      1    364    410      -550.5    
     27      1    369    418      -550.5    
     28      1    367    417      -550.5    
     29      1    365    415      -550.5    
     30      1    402    447      -550.5    
     31      1    400    446      -550.5    
     32      1    392    444      -550.5    
     33      1    391    441      -550.5    
     34      1    403    448      -550.5    
     35      1    405    447      -550.5    
     36      1    362    410      -550.5    
     37      1    362    411      -550.5    
     38      1    363    412      -550.5    
     39      1    375    421      -550.5    
     40      1    383    430      -550.5    
     41      1    397    445      -550.5    
     42      1    360    403      -550.5    
     43      1    350    401      -550.5    
     44      1    346    393      -614.0    
     45      1    333    387      -614.0    
     46      1    328    384      -614.0    
     47      1    326    383      -614.0    
     48      1    323    378      -614.0    
     49      1    321    378      -614.0    
     50      1    322    376      -614.0    
     51      1    316    374      -614.0    
     52      1    311    371      -614.0    
     53      1    307    369      -614.0    
     54      1    305    368      -614.0    
     55      1    303    368      -614.0    
     56      1    300    369      -614.0    
     57      1    293    364      -614.0    
     58      1    292    362      -614.0    
     59      1    278    350      -614.0    
     60      1    274    351      -614.0    
     61      1    273    350      -614.0    
     62      1    271    350      -614.0    
     63      1    267    348      -614.0    
     64      1    263    348      -614.0    
     65      1    263    348      -614.0    
     66      1    248    347      -614.0    
     67      1    243    342      -614.0    
     68      1    242    339      -614.0    
     69      1    238    341      -614.0    
     70      1    233    340      -614.0    
     71      1    232    340      -614.0    
     72      1    229    341      -614.0    
     73      1    227    341      -614.0    
     74      1    219    342      -614.0    
     75      1    219    336      -614.0    
     76      1    199    329      -614.0    
     77      1    191    332      -722.1    
     78      1    190    332      -722.1    
     79      1    130    310      -722.1    
     80      1    123    305      -722.1    
     81      1    104    289      -722.1    
     82      1     96    287      -1045.    
     83      1     95    284      -1045.    
     84      1     95    280      -1045.    
     85      1     93    276      -1045.    
     86      1     94    275      -1045.    
     87      1     90    277      -1045.    
     88      1     90    273      -1045.    
     89      1     86    271      -1045.    
     90      1     85    270      -1045.    
     91      1     84    265      -1045.    
     92      1     85    265      -1045.    
     93      1     84    264      -1045.    
     94      1     79    263      -1045.    
     95      1     79    263      -1045.    
     96      1     76    262      -1045.    
     97      1     73    257      -1045.    
     98      1     74    255      -1045.    
     99      1     71    255      -1045.    
    100      1     66    253      -1045.    
    101      1     68    252      -1045.    
    102      1     69    250      -1045.    
    103      1     65    248      -1045.    
    104      1     68    248      -1045.    
    105      1     69    247      -1045.    
    106      1     73    247      -1045.    
    107      1     64    246      -1045.    
    108      1     69    245      -1045.    
    109      1     72    245      -1045.    
    110      1     69    241      -1045.    
    111      1     73    238      -1045.    
    112      1     70    238      -1045.    
    113      1     76    263      -1045.    
    114      1     66    232      -728.1    
    115      1     69    229      -728.1    
    116      1     71    228      -728.1    
    117      1     69    227      -728.1    
    118      1     72    219      -728.1    
    119      1     72    218      -728.1    
    120      1     72    218      -728.1    
    121      1     73    217      -728.1    
    122      1     77    219      -728.1    
    123      1     78    219      -728.1    
    124      1     83    213      -728.1    
    125      1     77    213      -728.1    
    126      1     81    211      -728.1    
    127      1     81    210      -728.1    
    128      1     81    210      -728.1    
    129      1     82    208      -728.1    
    130      1     80    205      -728.1    
    131      1     86    202      -728.1    
    132      1     84    200      -728.1    
    133      1     89    200      -728.1    
    134      1     89    199      -728.1    
    135      1     88    199      -728.1    
    136      1     86    199      -728.1    
    137      1     85    199      -728.1    
    138      1     82    197      -728.1    
    139      1     86    197      -728.1    
    140      1     88    198      -728.1    
    141      1     90    192      -728.1    
    142      1     89    191      -728.1    
    143      1     84    192      -728.1    
    144      1     91    189      -728.1    
    145      1     92    185      -728.1    
    146      1     87    183      -728.1    
    147      1     92    182      -728.1    
    148      1     90    182      -728.1    
    149      1     88    179      -728.1    
    150      1     89    176      -728.1    
    151      1     92    172      -728.1    
    152      1     93    164      -728.1    
    153      1     94    162      -728.1    
    154      1    103    156      -728.1    
    155      1    103    156      -728.1    
    156      1     96    154      -728.1    
    157      1     97    153      -728.1    
    158      1    122    139      -728.1    
    159      1     92     77      -728.1    
    160      1     94     77      -728.1    
    161      1     94     73      -728.1    
    162      1     97    152      -728.1    
    163      1    118    337      -666.7    
    164      1    133    319      -2678.    
    165      1    131    320      -3951.    
    166      1    133    321      -2956.    
    167      1    161    329      -2141.    
    168      1    178    330      -551.0    
    169      1    163    330      -1122.    
    170      1    131    320      -2473.    
    171      1    129    315      -3937.    
    172      1    162    329      -1959.    
    173      1    131    311      -826.1    
    174      1    221    340      -1994.    
    175      1    220    340      -1034.    
    176      1    221    340      -667.7    
    177      1    137    322      -2082.    
    178      1    137    321      -1407.    
    179      1    185    329      -2012.    
    180      1    183    329      -1473.    
    181      1    175    329      -585.3    
    182      1     79    243      -1490.    
    183      1     77    245      -2414.    
    184      1    199    329      -1617.    
    185      1    198    330      -2514.    
    186      1    140    328      -972.1    
    187      1    143    327      -863.6    
    188      1    139    327      -1331.    

    188 WELLS

 REUSING NON-PARAMETER DRAINS FROM LAST STRESS PERIOD

   1061 DRAINS

 REUSING SURF FROM LAST STRESS PERIOD

 REUSING EVTR FROM LAST STRESS PERIOD

 REUSING EXDP FROM LAST STRESS PERIOD



                           RECHARGE
 READING ON UNIT   19 WITH FORMAT: (510E15.6)          

 SOLVING FOR HEAD 
                                                   Max.-Head-Change                        Max.-Flux-Residual
  Residual-Control   Outer-Iter.   Inner-Iter.     Column Row Layer    Max.-Head-Change    Column Row Layer    Max.-Flux-Residual            L2-New               L2-Old           Solver-Max-Delh
          0                 1           3           263   79     1      -0.2989653585E+01     348  263    1      -0.1079582916E+04      0.5928723907E+04      0.4557651342E+03     -0.2989653585E+01
          0                 2           2           263   79     1       0.2532200049E+00     348  263    1       0.1073370189E+03      0.5947720497E+03      0.5928723907E+04      0.2532200049E+00
          0                 3           2           457  453     1       0.1315395639E-01     348  263    1       0.5362257401E+01      0.2970926060E+02      0.5947720497E+03      0.1315395639E-01

    ------------------------------------------------
       NWT REQUIRED            3 OUTER ITERATIONS 
       AND A TOTAL OF          7 INNER ITERATIONS.
    ------------------------------------------------

 NO OUTPUT CONTROL FOR STRESS PERIOD   61   TIME STEP    1

 WELLS WITH REDUCED PUMPING FOR STRESS PERIOD    61 TIME STEP     1
   LAY   ROW   COL         APPL.Q          ACT.Q        GW-HEAD       CELL-BOT
     1    77   213  -0.728135E+03  -0.458909E+03   0.155034E+03   0.148000E+03
     1    92    77  -0.728135E+03  -0.430970E+03  -0.794644E+02  -0.930000E+02
     1    94    77  -0.728135E+03  -0.193318E+03  -0.943550E+02  -0.102000E+03
     1    94    73  -0.728135E+03  -0.232861E+03  -0.663830E+02  -0.740000E+02


 SOLVING FOR HEAD 
                                                   Max.-Head-Change                        Max.-Flux-Residual
  Residual-Control   Outer-Iter.   Inner-Iter.     Column Row Layer    Max.-Head-Change    Column Row Layer    Max.-Flux-Residual            L2-New               L2-Old           Solver-Max-Delh
          0                 1           3           263   79     1      -0.1171196486E+01     139  122    1       0.6720963617E+03      0.3569592082E+04      0.2970926060E+02     -0.1171196486E+01
          0                 2           2           263   79     1       0.1006773679E+00     139  122    1      -0.6721972886E+02      0.3575062438E+03      0.3569592082E+04      0.1006773679E+00
          0                 3           2           457  453     1       0.1309953787E-01     139  122    1      -0.3361060636E+01      0.1787490290E+02      0.3575062438E+03      0.1309953787E-01

    ------------------------------------------------
       NWT REQUIRED            3 OUTER ITERATIONS 
       AND A TOTAL OF          7 INNER ITERATIONS.
    ------------------------------------------------

 NO OUTPUT CONTROL FOR STRESS PERIOD   61   TIME STEP    2

 WELLS WITH REDUCED PUMPING FOR STRESS PERIOD    61 TIME STEP     2
   LAY   ROW   COL         APPL.Q          ACT.Q        GW-HEAD       CELL-BOT
     1    77   213  -0.728135E+03  -0.468794E+03   0.155146E+03   0.148000E+03
     1    92    77  -0.728135E+03  -0.422979E+03  -0.796431E+02  -0.930000E+02
     1    94    77  -0.728135E+03  -0.196032E+03  -0.942924E+02  -0.102000E+03
     1    94    73  -0.728135E+03  -0.236625E+03  -0.663091E+02  -0.740000E+02


 SOLVING FOR HEAD 
                                                   Max.-Head-Change                        Max.-Flux-Residual
  Residual-Control   Outer-Iter.   Inner-Iter.     Column Row Layer    Max.-Head-Change    Column Row Layer    Max.-Flux-Residual            L2-New               L2-Old           Solver-Max-Delh
          0                 1           3           263   79     1      -0.4660533070E+00     197   82    1       0.6535305112E+03      0.3239225566E+04      0.1787490290E+02     -0.4660533070E+00
          0                 2           2           263   79     1       0.4021646168E-01     197   82    1      -0.6536163641E+02      0.3239322556E+03      0.3239225566E+04      0.4021646168E-01

    ------------------------------------------------
       NWT REQUIRED            2 OUTER ITERATIONS 
       AND A TOTAL OF          5 INNER ITERATIONS.
    ------------------------------------------------

 NO OUTPUT CONTROL FOR STRESS PERIOD   61   TIME STEP    3

 WELLS WITH REDUCED PUMPING FOR STRESS PERIOD    61 TIME STEP     3
   LAY   ROW   COL         APPL.Q          ACT.Q        GW-HEAD       CELL-BOT
     1    77   213  -0.728135E+03  -0.478269E+03   0.155254E+03   0.148000E+03
     1    92    77  -0.728135E+03  -0.416995E+03  -0.797766E+02  -0.930000E+02
     1    94    77  -0.728135E+03  -0.198722E+03  -0.942305E+02  -0.102000E+03
     1    94    73  -0.728135E+03  -0.240343E+03  -0.662365E+02  -0.740000E+02


 SOLVING FOR HEAD 
                                                   Max.-Head-Change                        Max.-Flux-Residual
  Residual-Control   Outer-Iter.   Inner-Iter.     Column Row Layer    Max.-Head-Change    Column Row Layer    Max.-Flux-Residual            L2-New               L2-Old           Solver-Max-Delh
          0                 1           3           197   82     1       0.2635600630E+00     197   82    1       0.6427131605E+03      0.3095862845E+04      0.3239322556E+03      0.2635600630E+00
          0                 2           2           197   82     1      -0.2276442783E-01     197   82    1      -0.6427966763E+02      0.3096197147E+03      0.3095862845E+04     -0.2276442783E-01

    ------------------------------------------------
       NWT REQUIRED            2 OUTER ITERATIONS 
       AND A TOTAL OF          5 INNER ITERATIONS.
    ------------------------------------------------

 NO OUTPUT CONTROL FOR STRESS PERIOD   61   TIME STEP    4

 WELLS WITH REDUCED PUMPING FOR STRESS PERIOD    61 TIME STEP     4
   LAY   ROW   COL         APPL.Q          ACT.Q        GW-HEAD       CELL-BOT
     1    77   213  -0.728135E+03  -0.487301E+03   0.155358E+03   0.148000E+03
     1    92    77  -0.728135E+03  -0.412535E+03  -0.798759E+02  -0.930000E+02
     1    94    77  -0.728135E+03  -0.201373E+03  -0.941697E+02  -0.102000E+03
     1    94    73  -0.728135E+03  -0.243995E+03  -0.661653E+02  -0.740000E+02


 SOLVING FOR HEAD 
                                                   Max.-Head-Change                        Max.-Flux-Residual
  Residual-Control   Outer-Iter.   Inner-Iter.     Column Row Layer    Max.-Head-Change    Column Row Layer    Max.-Flux-Residual            L2-New               L2-Old           Solver-Max-Delh
          0                 1           3           197   82     1       0.2592079818E+00     197   82    1       0.6320894851E+03      0.3006858362E+04      0.3096197147E+03      0.2592079818E+00
          0                 2           2           197   82     1      -0.2238850224E-01     197   82    1      -0.6321708096E+02      0.3006867838E+03      0.3006858362E+04     -0.2238850224E-01

    ------------------------------------------------
       NWT REQUIRED            2 OUTER ITERATIONS 
       AND A TOTAL OF          5 INNER ITERATIONS.
    ------------------------------------------------

 NO OUTPUT CONTROL FOR STRESS PERIOD   61   TIME STEP    5

 WELLS WITH REDUCED PUMPING FOR STRESS PERIOD    61 TIME STEP     5
   LAY   ROW   COL         APPL.Q          ACT.Q        GW-HEAD       CELL-BOT
     1    77   213  -0.728135E+03  -0.495912E+03   0.155458E+03   0.148000E+03
     1    92    77  -0.728135E+03  -0.409199E+03  -0.799500E+02  -0.930000E+02
     1    94    77  -0.728135E+03  -0.203987E+03  -0.941101E+02  -0.102000E+03
     1    94    73  -0.728135E+03  -0.247582E+03  -0.660956E+02  -0.740000E+02


 SOLVING FOR HEAD 
                                                   Max.-Head-Change                        Max.-Flux-Residual
  Residual-Control   Outer-Iter.   Inner-Iter.     Column Row Layer    Max.-Head-Change    Column Row Layer    Max.-Flux-Residual            L2-New               L2-Old           Solver-Max-Delh
          0                 1           3           197   82     1       0.2549358754E+00     197   82    1       0.6216594558E+03      0.2940238198E+04      0.3006867838E+03      0.2549358754E+00
          0                 2           2           197   82     1      -0.2201948640E-01     197   82    1      -0.6217386819E+02      0.2940253073E+03      0.2940238198E+04     -0.2201948640E-01

    ------------------------------------------------
       NWT REQUIRED            2 OUTER ITERATIONS 
       AND A TOTAL OF          5 INNER ITERATIONS.
    ------------------------------------------------

 NO OUTPUT CONTROL FOR STRESS PERIOD   61   TIME STEP    6

 WELLS WITH REDUCED PUMPING FOR STRESS PERIOD    61 TIME STEP     6
   LAY   ROW   COL         APPL.Q          ACT.Q        GW-HEAD       CELL-BOT
     1    77   213  -0.728135E+03  -0.504118E+03   0.155554E+03   0.148000E+03
     1    92    77  -0.728135E+03  -0.406691E+03  -0.800057E+02  -0.930000E+02
     1    94    77  -0.728135E+03  -0.206562E+03  -0.940515E+02  -0.102000E+03
     1    94    73  -0.728135E+03  -0.251105E+03  -0.660274E+02  -0.740000E+02


 SOLVING FOR HEAD 
                                                   Max.-Head-Change                        Max.-Flux-Residual
  Residual-Control   Outer-Iter.   Inner-Iter.     Column Row Layer    Max.-Head-Change    Column Row Layer    Max.-Flux-Residual            L2-New               L2-Old           Solver-Max-Delh
          0                 1           3           197   82     1       0.2507425182E+00     197   82    1       0.6114209919E+03      0.2885371650E+04      0.2940253073E+03      0.2507425182E+00
          0                 2           2           197   82     1      -0.2165727117E-01     197   82    1      -0.6114981904E+02      0.2885834765E+03      0.2885371650E+04     -0.2165727117E-01

    ------------------------------------------------
       NWT REQUIRED            2 OUTER ITERATIONS 
       AND A TOTAL OF          5 INNER ITERATIONS.
    ------------------------------------------------

 NO OUTPUT CONTROL FOR STRESS PERIOD   61   TIME STEP    7

 WELLS WITH REDUCED PUMPING FOR STRESS PERIOD    61 TIME STEP     7
   LAY   ROW   COL         APPL.Q          ACT.Q        GW-HEAD       CELL-BOT
     1    77   213  -0.728135E+03  -0.511940E+03   0.155647E+03   0.148000E+03
     1    92    77  -0.728135E+03  -0.404794E+03  -0.800479E+02  -0.930000E+02
     1    94    77  -0.728135E+03  -0.209099E+03  -0.939939E+02  -0.102000E+03
     1    94    73  -0.728135E+03  -0.254563E+03  -0.659607E+02  -0.740000E+02


 SOLVING FOR HEAD 
                                                   Max.-Head-Change                        Max.-Flux-Residual
  Residual-Control   Outer-Iter.   Inner-Iter.     Column Row Layer    Max.-Head-Change    Column Row Layer    Max.-Flux-Residual            L2-New               L2-Old           Solver-Max-Delh
          0                 1           3           197   82     1       0.2466264367E+00     197   82    1       0.6013708692E+03      0.2837806569E+04      0.2885834765E+03      0.2466264367E+00
          0                 2           2           197   82     1      -0.2130173676E-01     197   82    1      -0.6014461013E+02      0.2838159431E+03      0.2837806569E+04     -0.2130173676E-01

    ------------------------------------------------
       NWT REQUIRED            2 OUTER ITERATIONS 
       AND A TOTAL OF          5 INNER ITERATIONS.
    ------------------------------------------------

 NO OUTPUT CONTROL FOR STRESS PERIOD   61   TIME STEP    8

 WELLS WITH REDUCED PUMPING FOR STRESS PERIOD    61 TIME STEP     8
   LAY   ROW   COL         APPL.Q          ACT.Q        GW-HEAD       CELL-BOT
     1    77   213  -0.728135E+03  -0.519393E+03   0.155736E+03   0.148000E+03
     1    92    77  -0.728135E+03  -0.403345E+03  -0.800800E+02  -0.930000E+02
     1    94    77  -0.728135E+03  -0.211598E+03  -0.939374E+02  -0.102000E+03
     1    94    73  -0.728135E+03  -0.257957E+03  -0.658954E+02  -0.740000E+02


 SOLVING FOR HEAD 
                                                   Max.-Head-Change                        Max.-Flux-Residual
  Residual-Control   Outer-Iter.   Inner-Iter.     Column Row Layer    Max.-Head-Change    Column Row Layer    Max.-Flux-Residual            L2-New               L2-Old           Solver-Max-Delh
          0                 1           3           197   82     1       0.2425862288E+00     197   82    1       0.5915058680E+03      0.2795432955E+04      0.2838159431E+03      0.2425862288E+00
          0                 2           2           197   82     1      -0.2095275412E-01     197   82    1      -0.5915791893E+02      0.2795579215E+03      0.2795432955E+04     -0.2095275412E-01

    ------------------------------------------------
       NWT REQUIRED            2 OUTER ITERATIONS 
       AND A TOTAL OF          5 INNER ITERATIONS.
    ------------------------------------------------

 NO OUTPUT CONTROL FOR STRESS PERIOD   61   TIME STEP    9

 WELLS WITH REDUCED PUMPING FOR STRESS PERIOD    61 TIME STEP     9
   LAY   ROW   COL         APPL.Q          ACT.Q        GW-HEAD       CELL-BOT
     1    77   213  -0.728135E+03  -0.526497E+03   0.155821E+03   0.148000E+03
     1    92    77  -0.728135E+03  -0.402226E+03  -0.801048E+02  -0.930000E+02
     1    94    77  -0.728135E+03  -0.214060E+03  -0.938820E+02  -0.102000E+03
     1    94    73  -0.728135E+03  -0.261288E+03  -0.658314E+02  -0.740000E+02


 SOLVING FOR HEAD 
                                                   Max.-Head-Change                        Max.-Flux-Residual
  Residual-Control   Outer-Iter.   Inner-Iter.     Column Row Layer    Max.-Head-Change    Column Row Layer    Max.-Flux-Residual            L2-New               L2-Old           Solver-Max-Delh
          0                 1           3           197   82     1       0.2386204153E+00     197   82    1       0.5818224594E+03      0.2757018432E+04      0.2795579215E+03      0.2386204153E+00
          0                 2           2           197   82     1      -0.2061019798E-01     197   82    1      -0.5818939221E+02      0.2756991286E+03      0.2757018432E+04     -0.2061019798E-01

    ------------------------------------------------
       NWT REQUIRED            2 OUTER ITERATIONS 
       AND A TOTAL OF          5 INNER ITERATIONS.
    ------------------------------------------------

 OUTPUT CONTROL FOR STRESS PERIOD   61   TIME STEP   10
    SAVE HEAD FOR ALL LAYERS

 WELLS WITH REDUCED PUMPING FOR STRESS PERIOD    61 TIME STEP    10
   LAY   ROW   COL         APPL.Q          ACT.Q        GW-HEAD       CELL-BOT
     1    77   213  -0.728135E+03  -0.533267E+03   0.155903E+03   0.148000E+03
     1    92    77  -0.728135E+03  -0.401350E+03  -0.801243E+02  -0.930000E+02
     1    94    77  -0.728135E+03  -0.216483E+03  -0.938275E+02  -0.102000E+03
     1    94    73  -0.728135E+03  -0.264555E+03  -0.657688E+02  -0.740000E+02


 HEAD WILL BE SAVED ON UNIT   51 AT END OF TIME STEP   10, STRESS PERIOD   61
1
  VOLUMETRIC BUDGET FOR ENTIRE MODEL AT END OF TIME STEP   10, STRESS PERIOD  61
  ------------------------------------------------------------------------------

     CUMULATIVE VOLUMES      L**3       RATES FOR THIS TIME STEP      L**3/T
     ------------------                 ------------------------

           IN:                                      IN:
           ---                                      ---
             STORAGE =   600544448.0000               STORAGE =      128102.1484
       CONSTANT HEAD =    94213408.0000         CONSTANT HEAD =       52109.6523
               WELLS =           0.0000                 WELLS =           0.0000
              DRAINS =           0.0000                DRAINS =           0.0000
                  ET =           0.0000                    ET =           0.0000
            RECHARGE =   353731648.0000              RECHARGE =      148817.6562

            TOTAL IN =  1048489536.0000              TOTAL IN =      329029.4375

          OUT:                                     OUT:
          ----                                     ----
             STORAGE =   199593504.0000               STORAGE =       30755.4297
       CONSTANT HEAD =           0.0000         CONSTANT HEAD =           0.0000
               WELLS =   550924160.0000                 WELLS =      147384.9375
              DRAINS =   210317200.0000                DRAINS =      108978.4297
                  ET =    86370464.0000                    ET =       41427.3047
            RECHARGE =       81860.0000              RECHARGE =           0.0000

           TOTAL OUT =  1047287104.0000             TOTAL OUT =      328546.1250

            IN - OUT =     1202432.0000              IN - OUT =         483.3125

 PERCENT DISCREPANCY =           0.11     PERCENT DISCREPANCY =           0.15






         TIME SUMMARY AT END OF TIME STEP   10 IN STRESS PERIOD   61
                    SECONDS     MINUTES      HOURS       DAYS        YEARS
                    -----------------------------------------------------------
   TIME STEP LENGTH 2.62656E+05  4377.6      72.960      3.0400     8.32307E-03
 STRESS PERIOD TIME 2.62656E+06  43776.      729.60      30.400     8.32307E-02
         TOTAL TIME 1.60221E+08 2.67035E+06  44506.      1854.4      5.0771    
1
1
                            STRESS PERIOD NO.   62, LENGTH =   30.40000    
                            -----------------------------------------------

                              NUMBER OF TIME STEPS =    10

                               MULTIPLIER FOR DELT =     1.000

                            INITIAL TIME STEP SIZE =   3.040000    

 WELL NO.  LAYER   ROW   COL   STRESS RATE         
 --------------------------------------------------
      1      1     69    225      -5270.    
      2      1     71    224       0.000    
      3      1     74    220       0.000    
      4      1     73    220       0.000    
      5      1     71    223       0.000    
      6      1     71    223       0.000    
      7      1     72    223       0.000    
      8      1     92    173       0.000    
      9      1     94    174       0.000    
     10      1     93    175       0.000    
     11      1    203    328       0.000    
     12      1    438    460      -2966.    
     13      1    436    461      -2966.    
     14      1    410    454      -2966.    
     15      1    433    460      -2966.    
     16      1    431    462      -2966.    
     17      1    417    459      -2966.    
     18      1    418    458      -2966.    
     19      1    414    455      -2966.    
     20      1    443    464      -2966.    
     21      1    379    425      -2966.    
     22      1    362    405      -2966.    
     23      1    361    405      -2966.    
     24      1    362    406      -2966.    
     25      1    363    408      -2966.    
     26      1    364    410      -2966.    
     27      1    369    418      -2966.    
     28      1    367    417      -2966.    
     29      1    365    415      -2966.    
     30      1    402    447      -2966.    
     31      1    400    446      -2966.    
     32      1    392    444      -2966.    
     33      1    391    441      -2966.    
     34      1    403    448      -2966.    
     35      1    405    447      -2966.    
     36      1    362    410      -2966.    
     37      1    362    411      -2966.    
     38      1    363    412      -2966.    
     39      1    375    421      -2966.    
     40      1    383    430      -2966.    
     41      1    397    445      -2966.    
     42      1    360    403      -2966.    
     43      1    350    401      -2966.    
     44      1    346    393      -4060.    
     45      1    333    387      -4060.    
     46      1    328    384      -4060.    
     47      1    326    383      -4060.    
     48      1    323    378      -4060.    
     49      1    321    378      -4060.    
     50      1    322    376      -4060.    
     51      1    316    374      -4060.    
     52      1    311    371      -4060.    
     53      1    307    369      -4060.    
     54      1    305    368      -4060.    
     55      1    303    368      -4060.    
     56      1    300    369      -4060.    
     57      1    293    364      -4060.    
     58      1    292    362      -4060.    
     59      1    278    350      -4060.    
     60      1    274    351      -4060.    
     61      1    273    350      -4060.    
     62      1    271    350      -4060.    
     63      1    267    348      -4060.    
     64      1    263    348      -4060.    
     65      1    263    348      -4060.    
     66      1    248    347      -4060.    
     67      1    243    342      -4060.    
     68      1    242    339      -4060.    
     69      1    238    341      -4060.    
     70      1    233    340      -4060.    
     71      1    232    340      -4060.    
     72      1    229    341      -4060.    
     73      1    227    341      -4060.    
     74      1    219    342      -4060.    
     75      1    219    336      -4060.    
     76      1    199    329      -4060.    
     77      1    191    332      -5038.    
     78      1    190    332      -5038.    
     79      1    130    310      -5038.    
     80      1    123    305      -5038.    
     81      1    104    289      -5038.    
     82      1     96    287      -4290.    
     83      1     95    284      -4290.    
     84      1     95    280      -4290.    
     85      1     93    276      -4290.    
     86      1     94    275      -4290.    
     87      1     90    277      -4290.    
     88      1     90    273      -4290.    
     89      1     86    271      -4290.    
     90      1     85    270      -4290.    
     91      1     84    265      -4290.    
     92      1     85    265      -4290.    
     93      1     84    264      -4290.    
     94      1     79    263      -4290.    
     95      1     79    263      -4290.    
     96      1     76    262      -4290.    
     97      1     73    257      -4290.    
     98      1     74    255      -4290.    
     99      1     71    255      -4290.    
    100      1     66    253      -4290.    
    101      1     68    252      -4290.    
    102      1     69    250      -4290.    
    103      1     65    248      -4290.    
    104      1     68    248      -4290.    
    105      1     69    247      -4290.    
    106      1     73    247      -4290.    
    107      1     64    246      -4290.    
    108      1     69    245      -4290.    
    109      1     72    245      -4290.    
    110      1     69    241      -4290.    
    111      1     73    238      -4290.    
    112      1     70    238      -4290.    
    113      1     76    263      -4290.    
    114      1     66    232      -2310.    
    115      1     69    229      -2310.    
    116      1     71    228      -2310.    
    117      1     69    227      -2310.    
    118      1     72    219      -2310.    
    119      1     72    218      -2310.    
    120      1     72    218      -2310.    
    121      1     73    217      -2310.    
    122      1     77    219      -2310.    
    123      1     78    219      -2310.    
    124      1     83    213      -2310.    
    125      1     77    213      -2310.    
    126      1     81    211      -2310.    
    127      1     81    210      -2310.    
    128      1     81    210      -2310.    
    129      1     82    208      -2310.    
    130      1     80    205      -2310.    
    131      1     86    202      -2310.    
    132      1     84    200      -2310.    
    133      1     89    200      -2310.    
    134      1     89    199      -2310.    
    135      1     88    199      -2310.    
    136      1     86    199      -2310.    
    137      1     85    199      -2310.    
    138      1     82    197      -2310.    
    139      1     86    197      -2310.    
    140      1     88    198      -2310.    
    141      1     90    192      -2310.    
    142      1     89    191      -2310.    
    143      1     84    192      -2310.    
    144      1     91    189      -2310.    
    145      1     92    185      -2310.    
    146      1     87    183      -2310.    
    147      1     92    182      -2310.    
    148      1     90    182      -2310.    
    149      1     88    179      -2310.    
    150      1     89    176      -2310.    
    151      1     92    172      -2310.    
    152      1     93    164      -2310.    
    153      1     94    162      -2310.    
    154      1    103    156      -2310.    
    155      1    103    156      -2310.    
    156      1     96    154      -2310.    
    157      1     97    153      -2310.    
    158      1    122    139      -2310.    
    159      1     92     77      -2310.    
    160      1     94     77      -2310.    
    161      1     94     73      -2310.    
    162      1     97    152      -2310.    
    163      1    118    337      -666.7    
    164      1    133    319      -2678.    
    165      1    131    320      -3951.    
    166      1    133    321      -2956.    
    167      1    161    329      -2141.    
    168      1    178    330      -551.0    
    169      1    163    330      -1122.    
    170      1    131    320      -2473.    
    171      1    129    315      -3937.    
    172      1    162    329      -1959.    
    173      1    131    311      -826.1    
    174      1    221    340      -1994.    
    175      1    220    340      -1034.    
    176      1    221    340      -667.7    
    177      1    137    322      -2082.    
    178      1    137    321      -1407.    
    179      1    185    329      -2012.    
    180      1    183    329      -1473.    
    181      1    175    329      -585.3    
    182      1     79    243      -1490.    
    183      1     77    245      -2414.    
    184      1    199    329      -1617.    
    185      1    198    330      -2514.    
    186      1    140    328      -972.1    
    187      1    143    327      -863.6    
    188      1    139    327      -1331.    

    188 WELLS

 REUSING NON-PARAMETER DRAINS FROM LAST STRESS PERIOD

   1061 DRAINS

 REUSING SURF FROM LAST STRESS PERIOD

 REUSING EVTR FROM LAST STRESS PERIOD

 REUSING EXDP FROM LAST STRESS PERIOD



                           RECHARGE
 READING ON UNIT   19 WITH FORMAT: (510E15.6)          

 SOLVING FOR HEAD 
                                                   Max.-Head-Change                        Max.-Flux-Residual
  Residual-Control   Outer-Iter.   Inner-Iter.     Column Row Layer    Max.-Head-Change    Column Row Layer    Max.-Flux-Residual            L2-New               L2-Old           Solver-Max-Delh
          0                 1           3           263   79     1      -0.1934912215E+02     348  263    1      -0.6867080484E+04      0.3322624950E+05      0.2756991286E+03     -0.1934912215E+02
          0                 2           2           263   79     1       0.1466257970E+01     238   70    1       0.7292367905E+03      0.3335225320E+04      0.3322624950E+05      0.1466257970E+01
          0                 3           2           263   79     1       0.7157946122E-01     238   70    1       0.3642377032E+02      0.1662876613E+03      0.3335225320E+04      0.7157946122E-01

    ------------------------------------------------
       NWT REQUIRED            3 OUTER ITERATIONS 
       AND A TOTAL OF          7 INNER ITERATIONS.
    ------------------------------------------------

 NO OUTPUT CONTROL FOR STRESS PERIOD   62   TIME STEP    1

 WELLS WITH REDUCED PUMPING FOR STRESS PERIOD    62 TIME STEP     1
   LAY   ROW   COL         APPL.Q          ACT.Q        GW-HEAD       CELL-BOT
     1    77   213  -0.230952E+04  -0.160774E+04   0.155587E+03   0.148000E+03
     1    92    77  -0.230952E+04  -0.836595E+03  -0.831878E+02  -0.930000E+02
     1    94    77  -0.230952E+04  -0.671115E+03  -0.939377E+02  -0.102000E+03
     1    94    73  -0.230952E+04  -0.816156E+03  -0.659077E+02  -0.740000E+02


 SOLVING FOR HEAD 
                                                   Max.-Head-Change                        Max.-Flux-Residual
  Residual-Control   Outer-Iter.   Inner-Iter.     Column Row Layer    Max.-Head-Change    Column Row Layer    Max.-Flux-Residual            L2-New               L2-Old           Solver-Max-Delh
          0                 1           3           263   79     1      -0.8291396781E+01     374  316    1      -0.2980395880E+04      0.1679733191E+05      0.1662876613E+03     -0.8291396781E+01
          0                 2           3           263   79     1       0.6613696384E+00     374  316    1       0.2977723351E+03      0.1668995693E+04      0.1679733191E+05      0.6613696384E+00
          0                 3           2           263   79     1       0.3258005527E-01     374  316    1       0.1488661751E+02      0.8336523697E+02      0.1668995693E+04      0.3258005527E-01

    ------------------------------------------------
       NWT REQUIRED            3 OUTER ITERATIONS 
       AND A TOTAL OF          8 INNER ITERATIONS.
    ------------------------------------------------

 NO OUTPUT CONTROL FOR STRESS PERIOD   62   TIME STEP    2

 WELLS WITH REDUCED PUMPING FOR STRESS PERIOD    62 TIME STEP     2
   LAY   ROW   COL         APPL.Q          ACT.Q        GW-HEAD       CELL-BOT
     1    77   213  -0.230952E+04  -0.152995E+04   0.155301E+03   0.148000E+03
     1    92    77  -0.230952E+04  -0.633874E+03  -0.846930E+02  -0.930000E+02
     1    94    77  -0.230952E+04  -0.656459E+03  -0.940423E+02  -0.102000E+03
     1    94    73  -0.230952E+04  -0.794671E+03  -0.660384E+02  -0.740000E+02


 SOLVING FOR HEAD 
                                                   Max.-Head-Change                        Max.-Flux-Residual
  Residual-Control   Outer-Iter.   Inner-Iter.     Column Row Layer    Max.-Head-Change    Column Row Layer    Max.-Flux-Residual            L2-New               L2-Old           Solver-Max-Delh
          0                 1           3           263   79     1      -0.3915815196E+01     374  316    1      -0.2671130208E+04      0.1359668411E+05      0.8336523697E+02     -0.3915815196E+01
          0                 2           2           263   79     1       0.3228608322E+00     374  316    1       0.2668550380E+03      0.1360037263E+04      0.1359668411E+05      0.3228608322E+00
          0                 3           2           263   79     1       0.1600081055E-01     374  316    1       0.1334083241E+02      0.6797166361E+02      0.1360037263E+04      0.1600081055E-01

    ------------------------------------------------
       NWT REQUIRED            3 OUTER ITERATIONS 
       AND A TOTAL OF          7 INNER ITERATIONS.
    ------------------------------------------------

 NO OUTPUT CONTROL FOR STRESS PERIOD   62   TIME STEP    3

 WELLS WITH REDUCED PUMPING FOR STRESS PERIOD    62 TIME STEP     3
   LAY   ROW   COL         APPL.Q          ACT.Q        GW-HEAD       CELL-BOT
     1    77   213  -0.230952E+04  -0.145838E+04   0.155044E+03   0.148000E+03
     1    92    77  -0.230952E+04  -0.537383E+03  -0.854537E+02  -0.930000E+02
     1    94    77  -0.230952E+04  -0.642626E+03  -0.941416E+02  -0.102000E+03
     1    94    73  -0.230952E+04  -0.774571E+03  -0.661613E+02  -0.740000E+02


 SOLVING FOR HEAD 
                                                   Max.-Head-Change                        Max.-Flux-Residual
  Residual-Control   Outer-Iter.   Inner-Iter.     Column Row Layer    Max.-Head-Change    Column Row Layer    Max.-Flux-Residual            L2-New               L2-Old           Solver-Max-Delh
          0                 1           3           263   79     1      -0.2082872416E+01     374  316    1      -0.2400495264E+04      0.1207197052E+05      0.6797166361E+02     -0.2082872416E+01
          0                 2           2           263   79     1       0.1750329878E+00     374  316    1       0.2398092566E+03      0.1205294237E+04      0.1207197052E+05      0.1750329878E+00
          0                 3           2           457  453     1       0.1273880530E-01     374  316    1       0.1198868147E+02      0.6025343128E+02      0.1205294237E+04      0.1273880530E-01

    ------------------------------------------------
       NWT REQUIRED            3 OUTER ITERATIONS 
       AND A TOTAL OF          7 INNER ITERATIONS.
    ------------------------------------------------

 NO OUTPUT CONTROL FOR STRESS PERIOD   62   TIME STEP    4

 WELLS WITH REDUCED PUMPING FOR STRESS PERIOD    62 TIME STEP     4
   LAY   ROW   COL         APPL.Q          ACT.Q        GW-HEAD       CELL-BOT
     1    77   213  -0.230952E+04  -0.139301E+04   0.154812E+03   0.148000E+03
     1    92    77  -0.230952E+04  -0.489668E+03  -0.858453E+02  -0.930000E+02
     1    94    77  -0.230952E+04  -0.629565E+03  -0.942359E+02  -0.102000E+03
     1    94    73  -0.230952E+04  -0.755758E+03  -0.662769E+02  -0.740000E+02


 SOLVING FOR HEAD 
                                                   Max.-Head-Change                        Max.-Flux-Residual
  Residual-Control   Outer-Iter.   Inner-Iter.     Column Row Layer    Max.-Head-Change    Column Row Layer    Max.-Flux-Residual            L2-New               L2-Old           Solver-Max-Delh
          0                 1           3           263   79     1      -0.1260609370E+01     378  321    1      -0.2182872470E+04      0.1114697336E+05      0.6025343128E+02     -0.1260609370E+01
          0                 2           2           263   79     1       0.1070650494E+00     378  321    1       0.2180517746E+03      0.1116749453E+04      0.1114697336E+05      0.1070650494E+00
          0                 3           2           457  453     1       0.1267593483E-01     378  321    1       0.1090082837E+02      0.5582981568E+02      0.1116749453E+04      0.1267593483E-01

    ------------------------------------------------
       NWT REQUIRED            3 OUTER ITERATIONS 
       AND A TOTAL OF          7 INNER ITERATIONS.
    ------------------------------------------------

 NO OUTPUT CONTROL FOR STRESS PERIOD   62   TIME STEP    5

 WELLS WITH REDUCED PUMPING FOR STRESS PERIOD    62 TIME STEP     5
   LAY   ROW   COL         APPL.Q          ACT.Q        GW-HEAD       CELL-BOT
     1    77   213  -0.230952E+04  -0.133363E+04   0.154604E+03   0.148000E+03
     1    92    77  -0.230952E+04  -0.465430E+03  -0.860490E+02  -0.930000E+02
     1    94    77  -0.230952E+04  -0.617227E+03  -0.943255E+02  -0.102000E+03
     1    94    73  -0.230952E+04  -0.738144E+03  -0.663858E+02  -0.740000E+02


 SOLVING FOR HEAD 
                                                   Max.-Head-Change                        Max.-Flux-Residual
  Residual-Control   Outer-Iter.   Inner-Iter.     Column Row Layer    Max.-Head-Change    Column Row Layer    Max.-Flux-Residual            L2-New               L2-Old           Solver-Max-Delh
          0                 1           3           264   78     1      -0.9600722771E+00     378  321    1      -0.2000806485E+04      0.1051274829E+05      0.5582981568E+02     -0.9600722771E+00
          0                 2           2           264   78     1       0.8164444741E-01     378  321    1       0.1998572437E+03      0.1054578911E+04      0.1051274829E+05      0.8164444741E-01

    ------------------------------------------------
       NWT REQUIRED            2 OUTER ITERATIONS 
       AND A TOTAL OF          5 INNER ITERATIONS.
    ------------------------------------------------

 NO OUTPUT CONTROL FOR STRESS PERIOD   62   TIME STEP    6

 WELLS WITH REDUCED PUMPING FOR STRESS PERIOD    62 TIME STEP     6
   LAY   ROW   COL         APPL.Q          ACT.Q        GW-HEAD       CELL-BOT
     1    77   213  -0.230952E+04  -0.127967E+04   0.154416E+03   0.148000E+03
     1    92    77  -0.230952E+04  -0.452869E+03  -0.861560E+02  -0.930000E+02
     1    94    77  -0.230952E+04  -0.605513E+03  -0.944110E+02  -0.102000E+03
     1    94    73  -0.230952E+04  -0.721569E+03  -0.664888E+02  -0.740000E+02


 SOLVING FOR HEAD 
                                                   Max.-Head-Change                        Max.-Flux-Residual
  Residual-Control   Outer-Iter.   Inner-Iter.     Column Row Layer    Max.-Head-Change    Column Row Layer    Max.-Flux-Residual            L2-New               L2-Old           Solver-Max-Delh
          0                 1           3           264   78     1      -0.8223540463E+00     378  321    1      -0.1839161224E+04      0.1004263014E+05      0.5272478355E+02     -0.8223540463E+00
          0                 2           2           264   78     1       0.6997129883E-01     378  321    1       0.1837075475E+03      0.1005990142E+04      0.1004263014E+05      0.6997129883E-01

    ------------------------------------------------
       NWT REQUIRED            2 OUTER ITERATIONS 
       AND A TOTAL OF          5 INNER ITERATIONS.
    ------------------------------------------------

 NO OUTPUT CONTROL FOR STRESS PERIOD   62   TIME STEP    7

 WELLS WITH REDUCED PUMPING FOR STRESS PERIOD    62 TIME STEP     7
   LAY   ROW   COL         APPL.Q          ACT.Q        GW-HEAD       CELL-BOT
     1    77   213  -0.230952E+04  -0.123103E+04   0.154247E+03   0.148000E+03
     1    92    77  -0.230952E+04  -0.446367E+03  -0.862117E+02  -0.930000E+02
     1    94    77  -0.230952E+04  -0.594442E+03  -0.944923E+02  -0.102000E+03
     1    94    73  -0.230952E+04  -0.706044E+03  -0.665859E+02  -0.740000E+02


 SOLVING FOR HEAD 
                                                   Max.-Head-Change                        Max.-Flux-Residual
  Residual-Control   Outer-Iter.   Inner-Iter.     Column Row Layer    Max.-Head-Change    Column Row Layer    Max.-Flux-Residual            L2-New               L2-Old           Solver-Max-Delh
          0                 1           3           343  217     1      -0.7708471761E+00     378  321    1      -0.1695988514E+04      0.9679092456E+04      0.5029879123E+02     -0.7708471761E+00
          0                 2           2           343  217     1       0.6604688325E-01     378  321    1       0.1694061229E+03      0.9675551706E+03      0.9679092456E+04      0.6604688325E-01

    ------------------------------------------------
       NWT REQUIRED            2 OUTER ITERATIONS 
       AND A TOTAL OF          5 INNER ITERATIONS.
    ------------------------------------------------

 NO OUTPUT CONTROL FOR STRESS PERIOD   62   TIME STEP    8

 WELLS WITH REDUCED PUMPING FOR STRESS PERIOD    62 TIME STEP     8
   LAY   ROW   COL         APPL.Q          ACT.Q        GW-HEAD       CELL-BOT
     1    77   213  -0.230952E+04  -0.118728E+04   0.154096E+03   0.148000E+03
     1    92    77  -0.230952E+04  -0.442996E+03  -0.862408E+02  -0.930000E+02
     1    94    77  -0.230952E+04  -0.583975E+03  -0.945695E+02  -0.102000E+03
     1    94    73  -0.230952E+04  -0.691495E+03  -0.666773E+02  -0.740000E+02


 SOLVING FOR HEAD 
                                                   Max.-Head-Change                        Max.-Flux-Residual
  Residual-Control   Outer-Iter.   Inner-Iter.     Column Row Layer    Max.-Head-Change    Column Row Layer    Max.-Flux-Residual            L2-New               L2-Old           Solver-Max-Delh
          0                 1           3           343  217     1      -0.7230279328E+00     378  321    1      -0.1568817803E+04      0.9388687037E+04      0.4837506054E+02     -0.7230279328E+00
          0                 2           2           343  217     1       0.6196695743E-01     378  321    1       0.1567049002E+03      0.9405514156E+03      0.9388687037E+04      0.6196695743E-01

    ------------------------------------------------
       NWT REQUIRED            2 OUTER ITERATIONS 
       AND A TOTAL OF          5 INNER ITERATIONS.
    ------------------------------------------------

 NO OUTPUT CONTROL FOR STRESS PERIOD   62   TIME STEP    9

 WELLS WITH REDUCED PUMPING FOR STRESS PERIOD    62 TIME STEP     9
   LAY   ROW   COL         APPL.Q          ACT.Q        GW-HEAD       CELL-BOT
     1    77   213  -0.230952E+04  -0.114798E+04   0.153960E+03   0.148000E+03
     1    92    77  -0.230952E+04  -0.441253E+03  -0.862558E+02  -0.930000E+02
     1    94    77  -0.230952E+04  -0.574074E+03  -0.946430E+02  -0.102000E+03
     1    94    73  -0.230952E+04  -0.677855E+03  -0.667634E+02  -0.740000E+02


 SOLVING FOR HEAD 
                                                   Max.-Head-Change                        Max.-Flux-Residual
  Residual-Control   Outer-Iter.   Inner-Iter.     Column Row Layer    Max.-Head-Change    Column Row Layer    Max.-Flux-Residual            L2-New               L2-Old           Solver-Max-Delh
          0                 1           3           343  217     1      -0.6744608522E+00     378  321    1      -0.1455556835E+04      0.9149506896E+04      0.4702716280E+02     -0.6744608522E+00
          0                 2           2           343  217     1       0.5782744873E-01     378  321    1       0.1453940686E+03      0.9148652783E+03      0.9149506896E+04      0.5782744873E-01

    ------------------------------------------------
       NWT REQUIRED            2 OUTER ITERATIONS 
       AND A TOTAL OF          5 INNER ITERATIONS.
    ------------------------------------------------

 OUTPUT CONTROL FOR STRESS PERIOD   62   TIME STEP   10
    SAVE HEAD FOR ALL LAYERS

 WELLS WITH REDUCED PUMPING FOR STRESS PERIOD    62 TIME STEP    10
   LAY   ROW   COL         APPL.Q          ACT.Q        GW-HEAD       CELL-BOT
     1    77   213  -0.230952E+04  -0.111272E+04   0.153838E+03   0.148000E+03
     1    92    77  -0.230952E+04  -0.440362E+03  -0.862635E+02  -0.930000E+02
     1    94    77  -0.230952E+04  -0.564705E+03  -0.947128E+02  -0.102000E+03
     1    94    73  -0.230952E+04  -0.665063E+03  -0.668446E+02  -0.740000E+02


 HEAD WILL BE SAVED ON UNIT   51 AT END OF TIME STEP   10, STRESS PERIOD   62
1
  VOLUMETRIC BUDGET FOR ENTIRE MODEL AT END OF TIME STEP   10, STRESS PERIOD  62
  ------------------------------------------------------------------------------

     CUMULATIVE VOLUMES      L**3       RATES FOR THIS TIME STEP      L**3/T
     ------------------                 ------------------------

           IN:                                      IN:
           ---                                      ---
             STORAGE =   613939328.0000               STORAGE =      431156.1562
       CONSTANT HEAD =    95797624.0000         CONSTANT HEAD =       52114.7070
               WELLS =           0.0000                 WELLS =           0.0000
              DRAINS =           0.0000                DRAINS =           0.0000
                  ET =           0.0000                    ET =           0.0000
            RECHARGE =   358004928.0000              RECHARGE =      140564.3125

            TOTAL IN =  1067741888.0000              TOTAL IN =      623835.1875

          OUT:                                     OUT:
          ----                                     ----
             STORAGE =   200031936.0000               STORAGE =       10929.6084
       CONSTANT HEAD =           0.0000         CONSTANT HEAD =           0.0000
               WELLS =   565395072.0000                 WELLS =      475605.0938
              DRAINS =   213428000.0000                DRAINS =       97420.1016
                  ET =    87568864.0000                    ET =       37783.2812
            RECHARGE =       81860.0000              RECHARGE =           0.0000

           TOTAL OUT =  1066505792.0000             TOTAL OUT =      621738.1250

            IN - OUT =     1236096.0000              IN - OUT =        2097.0625

 PERCENT DISCREPANCY =           0.12     PERCENT DISCREPANCY =           0.34






         TIME SUMMARY AT END OF TIME STEP   10 IN STRESS PERIOD   62
                    SECONDS     MINUTES      HOURS       DAYS        YEARS
                    -----------------------------------------------------------
   TIME STEP LENGTH 2.62656E+05  4377.6      72.960      3.0400     8.32307E-03
 STRESS PERIOD TIME 2.62656E+06  43776.      729.60      30.400     8.32307E-02
         TOTAL TIME 1.62847E+08 2.71412E+06  45235.      1884.8      5.1603    
1
1
                            STRESS PERIOD NO.   63, LENGTH =   30.40000    
                            -----------------------------------------------

                              NUMBER OF TIME STEPS =    10

                               MULTIPLIER FOR DELT =     1.000

                            INITIAL TIME STEP SIZE =   3.040000    

 WELL NO.  LAYER   ROW   COL   STRESS RATE         
 --------------------------------------------------
      1      1     69    225      -5357.    
      2      1     71    224       0.000    
      3      1     74    220       0.000    
      4      1     73    220       0.000    
      5      1     71    223       0.000    
      6      1     71    223       0.000    
      7      1     72    223       0.000    
      8      1     92    173       0.000    
      9      1     94    174       0.000    
     10      1     93    175       0.000    
     11      1    203    328       0.000    
     12      1    438    460      -2621.    
     13      1    436    461      -2621.    
     14      1    410    454      -2621.    
     15      1    433    460      -2621.    
     16      1    431    462      -2621.    
     17      1    417    459      -2621.    
     18      1    418    458      -2621.    
     19      1    414    455      -2621.    
     20      1    443    464      -2621.    
     21      1    379    425      -2621.    
     22      1    362    405      -2621.    
     23      1    361    405      -2621.    
     24      1    362    406      -2621.    
     25      1    363    408      -2621.    
     26      1    364    410      -2621.    
     27      1    369    418      -2621.    
     28      1    367    417      -2621.    
     29      1    365    415      -2621.    
     30      1    402    447      -2621.    
     31      1    400    446      -2621.    
     32      1    392    444      -2621.    
     33      1    391    441      -2621.    
     34      1    403    448      -2621.    
     35      1    405    447      -2621.    
     36      1    362    410      -2621.    
     37      1    362    411      -2621.    
     38      1    363    412      -2621.    
     39      1    375    421      -2621.    
     40      1    383    430      -2621.    
     41      1    397    445      -2621.    
     42      1    360    403      -2621.    
     43      1    350    401      -2621.    
     44      1    346    393      -3875.    
     45      1    333    387      -3875.    
     46      1    328    384      -3875.    
     47      1    326    383      -3875.    
     48      1    323    378      -3875.    
     49      1    321    378      -3875.    
     50      1    322    376      -3875.    
     51      1    316    374      -3875.    
     52      1    311    371      -3875.    
     53      1    307    369      -3875.    
     54      1    305    368      -3875.    
     55      1    303    368      -3875.    
     56      1    300    369      -3875.    
     57      1    293    364      -3875.    
     58      1    292    362      -3875.    
     59      1    278    350      -3875.    
     60      1    274    351      -3875.    
     61      1    273    350      -3875.    
     62      1    271    350      -3875.    
     63      1    267    348      -3875.    
     64      1    263    348      -3875.    
     65      1    263    348      -3875.    
     66      1    248    347      -3875.    
     67      1    243    342      -3875.    
     68      1    242    339      -3875.    
     69      1    238    341      -3875.    
     70      1    233    340      -3875.    
     71      1    232    340      -3875.    
     72      1    229    341      -3875.    
     73      1    227    341      -3875.    
     74      1    219    342      -3875.    
     75      1    219    336      -3875.    
     76      1    199    329      -3875.    
     77      1    191    332      -4532.    
     78      1    190    332      -4532.    
     79      1    130    310      -4532.    
     80      1    123    305      -4532.    
     81      1    104    289      -4532.    
     82      1     96    287      -3788.    
     83      1     95    284      -3788.    
     84      1     95    280      -3788.    
     85      1     93    276      -3788.    
     86      1     94    275      -3788.    
     87      1     90    277      -3788.    
     88      1     90    273      -3788.    
     89      1     86    271      -3788.    
     90      1     85    270      -3788.    
     91      1     84    265      -3788.    
     92      1     85    265      -3788.    
     93      1     84    264      -3788.    
     94      1     79    263      -3788.    
     95      1     79    263      -3788.    
     96      1     76    262      -3788.    
     97      1     73    257      -3788.    
     98      1     74    255      -3788.    
     99      1     71    255      -3788.    
    100      1     66    253      -3788.    
    101      1     68    252      -3788.    
    102      1     69    250      -3788.    
    103      1     65    248      -3788.    
    104      1     68    248      -3788.    
    105      1     69    247      -3788.    
    106      1     73    247      -3788.    
    107      1     64    246      -3788.    
    108      1     69    245      -3788.    
    109      1     72    245      -3788.    
    110      1     69    241      -3788.    
    111      1     73    238      -3788.    
    112      1     70    238      -3788.    
    113      1     76    263      -3788.    
    114      1     66    232      -2343.    
    115      1     69    229      -2343.    
    116      1     71    228      -2343.    
    117      1     69    227      -2343.    
    118      1     72    219      -2343.    
    119      1     72    218      -2343.    
    120      1     72    218      -2343.    
    121      1     73    217      -2343.    
    122      1     77    219      -2343.    
    123      1     78    219      -2343.    
    124      1     83    213      -2343.    
    125      1     77    213      -2343.    
    126      1     81    211      -2343.    
    127      1     81    210      -2343.    
    128      1     81    210      -2343.    
    129      1     82    208      -2343.    
    130      1     80    205      -2343.    
    131      1     86    202      -2343.    
    132      1     84    200      -2343.    
    133      1     89    200      -2343.    
    134      1     89    199      -2343.    
    135      1     88    199      -2343.    
    136      1     86    199      -2343.    
    137      1     85    199      -2343.    
    138      1     82    197      -2343.    
    139      1     86    197      -2343.    
    140      1     88    198      -2343.    
    141      1     90    192      -2343.    
    142      1     89    191      -2343.    
    143      1     84    192      -2343.    
    144      1     91    189      -2343.    
    145      1     92    185      -2343.    
    146      1     87    183      -2343.    
    147      1     92    182      -2343.    
    148      1     90    182      -2343.    
    149      1     88    179      -2343.    
    150      1     89    176      -2343.    
    151      1     92    172      -2343.    
    152      1     93    164      -2343.    
    153      1     94    162      -2343.    
    154      1    103    156      -2343.    
    155      1    103    156      -2343.    
    156      1     96    154      -2343.    
    157      1     97    153      -2343.    
    158      1    122    139      -2343.    
    159      1     92     77      -2343.    
    160      1     94     77      -2343.    
    161      1     94     73      -2343.    
    162      1     97    152      -2343.    
    163      1    118    337      -666.7    
    164      1    133    319      -2678.    
    165      1    131    320      -3951.    
    166      1    133    321      -2956.    
    167      1    161    329      -2141.    
    168      1    178    330      -551.0    
    169      1    163    330      -1122.    
    170      1    131    320      -2473.    
    171      1    129    315      -3937.    
    172      1    162    329      -1959.    
    173      1    131    311      -826.1    
    174      1    221    340      -1994.    
    175      1    220    340      -1034.    
    176      1    221    340      -667.7    
    177      1    137    322      -2082.    
    178      1    137    321      -1407.    
    179      1    185    329      -2012.    
    180      1    183    329      -1473.    
    181      1    175    329      -585.3    
    182      1     79    243      -1490.    
    183      1     77    245      -2414.    
    184      1    199    329      -1617.    
    185      1    198    330      -2514.    
    186      1    140    328      -972.1    
    187      1    143    327      -863.6    
    188      1    139    327      -1331.    

    188 WELLS

 REUSING NON-PARAMETER DRAINS FROM LAST STRESS PERIOD

   1061 DRAINS

 REUSING SURF FROM LAST STRESS PERIOD

 REUSING EVTR FROM LAST STRESS PERIOD

 REUSING EXDP FROM LAST STRESS PERIOD



                           RECHARGE
 READING ON UNIT   19 WITH FORMAT: (510E15.6)          

 SOLVING FOR HEAD 
                                                   Max.-Head-Change                        Max.-Flux-Residual
  Residual-Control   Outer-Iter.   Inner-Iter.     Column Row Layer    Max.-Head-Change    Column Row Layer    Max.-Flux-Residual            L2-New               L2-Old           Solver-Max-Delh
          0                 1           3           263   79     1       0.2821361659E+01     378  321    1      -0.1173116104E+04      0.1090252054E+05      0.4574055494E+02      0.2821361659E+01
          0                 2           2           263   79     1      -0.2447071776E+00     378  321    1       0.1171948263E+03      0.1088988186E+04      0.1090252054E+05     -0.2447071776E+00
          0                 3           2           457  453     1       0.1250819745E-01     378  321    1       0.5858868345E+01      0.5443454710E+02      0.1088988186E+04      0.1250819745E-01

    ------------------------------------------------
       NWT REQUIRED            3 OUTER ITERATIONS 
       AND A TOTAL OF          7 INNER ITERATIONS.
    ------------------------------------------------

 NO OUTPUT CONTROL FOR STRESS PERIOD   63   TIME STEP    1

 WELLS WITH REDUCED PUMPING FOR STRESS PERIOD    63 TIME STEP     1
   LAY   ROW   COL         APPL.Q          ACT.Q        GW-HEAD       CELL-BOT
     1    77   213  -0.234339E+04  -0.109556E+04   0.153724E+03   0.148000E+03
     1    92    77  -0.234339E+04  -0.443594E+03  -0.862910E+02  -0.930000E+02
     1    94    77  -0.234339E+04  -0.563654E+03  -0.947818E+02  -0.102000E+03
     1    94    73  -0.234339E+04  -0.662176E+03  -0.669241E+02  -0.740000E+02


 SOLVING FOR HEAD 
                                                   Max.-Head-Change                        Max.-Flux-Residual
  Residual-Control   Outer-Iter.   Inner-Iter.     Column Row Layer    Max.-Head-Change    Column Row Layer    Max.-Flux-Residual            L2-New               L2-Old           Solver-Max-Delh
          0                 1           3           263   79     1       0.1046383091E+01     378  321    1      -0.1099779930E+04      0.9933983674E+04      0.5443454710E+02      0.1046383091E+01
          0                 2           2           263   79     1      -0.9022211795E-01     378  321    1       0.1098718582E+03      0.9927871679E+03      0.9933983674E+04     -0.9022211795E-01

    ------------------------------------------------
       NWT REQUIRED            2 OUTER ITERATIONS 
       AND A TOTAL OF          5 INNER ITERATIONS.
    ------------------------------------------------

 NO OUTPUT CONTROL FOR STRESS PERIOD   63   TIME STEP    2

 WELLS WITH REDUCED PUMPING FOR STRESS PERIOD    63 TIME STEP     2
   LAY   ROW   COL         APPL.Q          ACT.Q        GW-HEAD       CELL-BOT
     1    77   213  -0.234339E+04  -0.106543E+04   0.153621E+03   0.148000E+03
     1    92    77  -0.234339E+04  -0.441922E+03  -0.863053E+02  -0.930000E+02
     1    94    77  -0.234339E+04  -0.554781E+03  -0.948476E+02  -0.102000E+03
     1    94    73  -0.234339E+04  -0.650264E+03  -0.669994E+02  -0.740000E+02


 SOLVING FOR HEAD 
                                                   Max.-Head-Change                        Max.-Flux-Residual
  Residual-Control   Outer-Iter.   Inner-Iter.     Column Row Layer    Max.-Head-Change    Column Row Layer    Max.-Flux-Residual            L2-New               L2-Old           Solver-Max-Delh
          0                 1           3           343  217     1      -0.4932462726E+00     378  321    1      -0.1033181962E+04      0.9633339345E+04      0.4963420078E+02     -0.4932462726E+00
          0                 2           2           343  217     1       0.4234807935E-01     378  321    1       0.1032217822E+03      0.9629032676E+03      0.9633339345E+04      0.4234807935E-01

    ------------------------------------------------
       NWT REQUIRED            2 OUTER ITERATIONS 
       AND A TOTAL OF          5 INNER ITERATIONS.
    ------------------------------------------------

 NO OUTPUT CONTROL FOR STRESS PERIOD   63   TIME STEP    3

 WELLS WITH REDUCED PUMPING FOR STRESS PERIOD    63 TIME STEP     3
   LAY   ROW   COL         APPL.Q          ACT.Q        GW-HEAD       CELL-BOT
     1    77   213  -0.234339E+04  -0.103847E+04   0.153529E+03   0.148000E+03
     1    92    77  -0.234339E+04  -0.441072E+03  -0.863125E+02  -0.930000E+02
     1    94    77  -0.234339E+04  -0.546382E+03  -0.949102E+02  -0.102000E+03
     1    94    73  -0.234339E+04  -0.639089E+03  -0.670704E+02  -0.740000E+02


 SOLVING FOR HEAD 
                                                   Max.-Head-Change                        Max.-Flux-Residual
  Residual-Control   Outer-Iter.   Inner-Iter.     Column Row Layer    Max.-Head-Change    Column Row Layer    Max.-Flux-Residual            L2-New               L2-Old           Solver-Max-Delh
          0                 1           3           343  217     1      -0.4485075026E+00     378  321    1      -0.9729249453E+03      0.9425660103E+04      0.4814199603E+02     -0.4485075026E+00
          0                 2           2           343  217     1       0.3866059326E-01     378  321    1       0.9720491062E+02      0.9422428890E+03      0.9425660103E+04      0.3866059326E-01

    ------------------------------------------------
       NWT REQUIRED            2 OUTER ITERATIONS 
       AND A TOTAL OF          5 INNER ITERATIONS.
    ------------------------------------------------

 NO OUTPUT CONTROL FOR STRESS PERIOD   63   TIME STEP    4

 WELLS WITH REDUCED PUMPING FOR STRESS PERIOD    63 TIME STEP     4
   LAY   ROW   COL         APPL.Q          ACT.Q        GW-HEAD       CELL-BOT
     1    77   213  -0.234339E+04  -0.101432E+04   0.153446E+03   0.148000E+03
     1    92    77  -0.234339E+04  -0.440650E+03  -0.863161E+02  -0.930000E+02
     1    94    77  -0.234339E+04  -0.538429E+03  -0.949698E+02  -0.102000E+03
     1    94    73  -0.234339E+04  -0.628601E+03  -0.671373E+02  -0.740000E+02


 SOLVING FOR HEAD 
                                                   Max.-Head-Change                        Max.-Flux-Residual
  Residual-Control   Outer-Iter.   Inner-Iter.     Column Row Layer    Max.-Head-Change    Column Row Layer    Max.-Flux-Residual            L2-New               L2-Old           Solver-Max-Delh
          0                 1           3           343  217     1      -0.4105283806E+00     378  321    1      -0.9182766141E+03      0.9259085605E+04      0.4710973000E+02     -0.4105283806E+00
          0                 2           2           343  217     1       0.3529263866E-01     378  321    1       0.9174805061E+02      0.9263540271E+03      0.9259085605E+04      0.3529263866E-01

    ------------------------------------------------
       NWT REQUIRED            2 OUTER ITERATIONS 
       AND A TOTAL OF          5 INNER ITERATIONS.
    ------------------------------------------------

 NO OUTPUT CONTROL FOR STRESS PERIOD   63   TIME STEP    5

 WELLS WITH REDUCED PUMPING FOR STRESS PERIOD    63 TIME STEP     5
   LAY   ROW   COL         APPL.Q          ACT.Q        GW-HEAD       CELL-BOT
     1    77   213  -0.234339E+04  -0.992700E+03   0.153372E+03   0.148000E+03
     1    92    77  -0.234339E+04  -0.440451E+03  -0.863178E+02  -0.930000E+02
     1    94    77  -0.234339E+04  -0.530896E+03  -0.950265E+02  -0.102000E+03
     1    94    73  -0.234339E+04  -0.618752E+03  -0.672004E+02  -0.740000E+02


 SOLVING FOR HEAD 
                                                   Max.-Head-Change                        Max.-Flux-Residual
  Residual-Control   Outer-Iter.   Inner-Iter.     Column Row Layer    Max.-Head-Change    Column Row Layer    Max.-Flux-Residual            L2-New               L2-Old           Solver-Max-Delh
          0                 1           3           343  217     1      -0.3781620418E+00     378  321    1      -0.8686429948E+03      0.9116121317E+04      0.4631573237E+02     -0.3781620418E+00
          0                 2           2           343  217     1       0.3252408482E-01     378  321    1       0.8679188194E+02      0.9115630836E+03      0.9116121317E+04      0.3252408482E-01

    ------------------------------------------------
       NWT REQUIRED            2 OUTER ITERATIONS 
       AND A TOTAL OF          5 INNER ITERATIONS.
    ------------------------------------------------

 NO OUTPUT CONTROL FOR STRESS PERIOD   63   TIME STEP    6

 WELLS WITH REDUCED PUMPING FOR STRESS PERIOD    63 TIME STEP     6
   LAY   ROW   COL         APPL.Q          ACT.Q        GW-HEAD       CELL-BOT
     1    77   213  -0.234339E+04  -0.973327E+03   0.153305E+03   0.148000E+03
     1    92    77  -0.234339E+04  -0.440367E+03  -0.863186E+02  -0.930000E+02
     1    94    77  -0.234339E+04  -0.523756E+03  -0.950805E+02  -0.102000E+03
     1    94    73  -0.234339E+04  -0.609500E+03  -0.672600E+02  -0.740000E+02


 SOLVING FOR HEAD 
                                                   Max.-Head-Change                        Max.-Flux-Residual
  Residual-Control   Outer-Iter.   Inner-Iter.     Column Row Layer    Max.-Head-Change    Column Row Layer    Max.-Flux-Residual            L2-New               L2-Old           Solver-Max-Delh
          0                 1           3           343  217     1      -0.3499655209E+00     213   83    1      -0.8267062302E+03      0.8989159699E+04      0.4557644305E+02     -0.3499655209E+00
          0                 2           2           343  217     1       0.3010987492E-01     213   83    1       0.8264869315E+02      0.9000025741E+03      0.8989159699E+04      0.3010987492E-01

    ------------------------------------------------
       NWT REQUIRED            2 OUTER ITERATIONS 
       AND A TOTAL OF          5 INNER ITERATIONS.
    ------------------------------------------------

 NO OUTPUT CONTROL FOR STRESS PERIOD   63   TIME STEP    7

 WELLS WITH REDUCED PUMPING FOR STRESS PERIOD    63 TIME STEP     7
   LAY   ROW   COL         APPL.Q          ACT.Q        GW-HEAD       CELL-BOT
     1    77   213  -0.234339E+04  -0.955961E+03   0.153245E+03   0.148000E+03
     1    92    77  -0.234339E+04  -0.440342E+03  -0.863188E+02  -0.930000E+02
     1    94    77  -0.234339E+04  -0.516989E+03  -0.951319E+02  -0.102000E+03
     1    94    73  -0.234339E+04  -0.600806E+03  -0.673162E+02  -0.740000E+02


 SOLVING FOR HEAD 
                                                   Max.-Head-Change                        Max.-Flux-Residual
  Residual-Control   Outer-Iter.   Inner-Iter.     Column Row Layer    Max.-Head-Change    Column Row Layer    Max.-Flux-Residual            L2-New               L2-Old           Solver-Max-Delh
          0                 1           3           213   83     1      -0.3346753553E+00     213   83    1      -0.8146676266E+03      0.8873730432E+04      0.4499854990E+02     -0.3346753553E+00
          0                 2           2           213   83     1       0.2889757097E-01     213   83    1       0.8144529029E+02      0.8870779235E+03      0.8873730432E+04      0.2889757097E-01

    ------------------------------------------------
       NWT REQUIRED            2 OUTER ITERATIONS 
       AND A TOTAL OF          5 INNER ITERATIONS.
    ------------------------------------------------

 NO OUTPUT CONTROL FOR STRESS PERIOD   63   TIME STEP    8

 WELLS WITH REDUCED PUMPING FOR STRESS PERIOD    63 TIME STEP     8
   LAY   ROW   COL         APPL.Q          ACT.Q        GW-HEAD       CELL-BOT
     1    77   213  -0.234339E+04  -0.940385E+03   0.153192E+03   0.148000E+03
     1    92    77  -0.234339E+04  -0.440348E+03  -0.863187E+02  -0.930000E+02
     1    94    77  -0.234339E+04  -0.510571E+03  -0.951808E+02  -0.102000E+03
     1    94    73  -0.234339E+04  -0.592631E+03  -0.673693E+02  -0.740000E+02


 SOLVING FOR HEAD 
                                                   Max.-Head-Change                        Max.-Flux-Residual
  Residual-Control   Outer-Iter.   Inner-Iter.     Column Row Layer    Max.-Head-Change    Column Row Layer    Max.-Flux-Residual            L2-New               L2-Old           Solver-Max-Delh
          0                 1           3           213   83     1      -0.3298749929E+00     213   83    1      -0.8028877030E+03      0.8766974669E+04      0.4435257298E+02     -0.3298749929E+00
          0                 2           2           213   83     1       0.2848312339E-01     213   83    1       0.8026774552E+02      0.8765243061E+03      0.8766974669E+04      0.2848312339E-01

    ------------------------------------------------
       NWT REQUIRED            2 OUTER ITERATIONS 
       AND A TOTAL OF          5 INNER ITERATIONS.
    ------------------------------------------------

 NO OUTPUT CONTROL FOR STRESS PERIOD   63   TIME STEP    9

 WELLS WITH REDUCED PUMPING FOR STRESS PERIOD    63 TIME STEP     9
   LAY   ROW   COL         APPL.Q          ACT.Q        GW-HEAD       CELL-BOT
     1    77   213  -0.234339E+04  -0.926406E+03   0.153143E+03   0.148000E+03
     1    92    77  -0.234339E+04  -0.440368E+03  -0.863185E+02  -0.930000E+02
     1    94    77  -0.234339E+04  -0.504482E+03  -0.952274E+02  -0.102000E+03
     1    94    73  -0.234339E+04  -0.584943E+03  -0.674194E+02  -0.740000E+02


 SOLVING FOR HEAD 
                                                   Max.-Head-Change                        Max.-Flux-Residual
  Residual-Control   Outer-Iter.   Inner-Iter.     Column Row Layer    Max.-Head-Change    Column Row Layer    Max.-Flux-Residual            L2-New               L2-Old           Solver-Max-Delh
          0                 1           3           213   83     1      -0.3251769960E+00     213   83    1      -0.7913599566E+03      0.8668549263E+04      0.4382491007E+02     -0.3251769960E+00
          0                 2           2           213   83     1       0.2807751362E-01     213   83    1       0.7911540856E+02      0.8670551330E+03      0.8668549263E+04      0.2807751362E-01

    ------------------------------------------------
       NWT REQUIRED            2 OUTER ITERATIONS 
       AND A TOTAL OF          5 INNER ITERATIONS.
    ------------------------------------------------

 OUTPUT CONTROL FOR STRESS PERIOD   63   TIME STEP   10
    SAVE HEAD FOR ALL LAYERS

 WELLS WITH REDUCED PUMPING FOR STRESS PERIOD    63 TIME STEP    10
   LAY   ROW   COL         APPL.Q          ACT.Q        GW-HEAD       CELL-BOT
     1    77   213  -0.234339E+04  -0.913853E+03   0.153099E+03   0.148000E+03
     1    92    77  -0.234339E+04  -0.440395E+03  -0.863183E+02  -0.930000E+02
     1    94    77  -0.234339E+04  -0.498704E+03  -0.952718E+02  -0.102000E+03
     1    94    73  -0.234339E+04  -0.577708E+03  -0.674668E+02  -0.740000E+02


 HEAD WILL BE SAVED ON UNIT   51 AT END OF TIME STEP   10, STRESS PERIOD   63
1
  VOLUMETRIC BUDGET FOR ENTIRE MODEL AT END OF TIME STEP   10, STRESS PERIOD  63
  ------------------------------------------------------------------------------

     CUMULATIVE VOLUMES      L**3       RATES FOR THIS TIME STEP      L**3/T
     ------------------                 ------------------------

           IN:                                      IN:
           ---                                      ---
             STORAGE =   626758208.0000               STORAGE =      417150.0625
       CONSTANT HEAD =    97381992.0000         CONSTANT HEAD =       52119.4570
               WELLS =           0.0000                 WELLS =           0.0000
              DRAINS =           0.0000                DRAINS =           0.0000
                  ET =           0.0000                    ET =           0.0000
            RECHARGE =   361693248.0000              RECHARGE =      121325.3047

            TOTAL IN =  1085833472.0000              TOTAL IN =      590594.8125

          OUT:                                     OUT:
          ----                                     ----
             STORAGE =   200345504.0000               STORAGE =        9637.1279
       CONSTANT HEAD =           0.0000         CONSTANT HEAD =           0.0000
               WELLS =   578991232.0000                 WELLS =      447097.1562
              DRAINS =   216277552.0000                DRAINS =       90893.1875
                  ET =    88673976.0000                    ET =       35318.9766
            RECHARGE =      252575.6250              RECHARGE =        5615.6470

           TOTAL OUT =  1084540800.0000             TOTAL OUT =      588562.1250

            IN - OUT =     1292672.0000              IN - OUT =        2032.6875

 PERCENT DISCREPANCY =           0.12     PERCENT DISCREPANCY =           0.34






         TIME SUMMARY AT END OF TIME STEP   10 IN STRESS PERIOD   63
                    SECONDS     MINUTES      HOURS       DAYS        YEARS
                    -----------------------------------------------------------
   TIME STEP LENGTH 2.62656E+05  4377.6      72.960      3.0400     8.32307E-03
 STRESS PERIOD TIME 2.62656E+06  43776.      729.60      30.400     8.32307E-02
         TOTAL TIME 1.65474E+08 2.75790E+06  45965.      1915.2      5.2436    
1
1
                            STRESS PERIOD NO.   64, LENGTH =   30.40000    
                            -----------------------------------------------

                              NUMBER OF TIME STEPS =    10

                               MULTIPLIER FOR DELT =     1.000

                            INITIAL TIME STEP SIZE =   3.040000    

 WELL NO.  LAYER   ROW   COL   STRESS RATE         
 --------------------------------------------------
      1      1     69    225      -5443.    
      2      1     71    224       0.000    
      3      1     74    220       0.000    
      4      1     73    220       0.000    
      5      1     71    223       0.000    
      6      1     71    223       0.000    
      7      1     72    223       0.000    
      8      1     92    173       0.000    
      9      1     94    174       0.000    
     10      1     93    175       0.000    
     11      1    203    328       0.000    
     12      1    438    460      -0.000    
     13      1    436    461      -0.000    
     14      1    410    454      -0.000    
     15      1    433    460      -0.000    
     16      1    431    462      -0.000    
     17      1    417    459      -0.000    
     18      1    418    458      -0.000    
     19      1    414    455      -0.000    
     20      1    443    464      -0.000    
     21      1    379    425      -0.000    
     22      1    362    405      -0.000    
     23      1    361    405      -0.000    
     24      1    362    406      -0.000    
     25      1    363    408      -0.000    
     26      1    364    410      -0.000    
     27      1    369    418      -0.000    
     28      1    367    417      -0.000    
     29      1    365    415      -0.000    
     30      1    402    447      -0.000    
     31      1    400    446      -0.000    
     32      1    392    444      -0.000    
     33      1    391    441      -0.000    
     34      1    403    448      -0.000    
     35      1    405    447      -0.000    
     36      1    362    410      -0.000    
     37      1    362    411      -0.000    
     38      1    363    412      -0.000    
     39      1    375    421      -0.000    
     40      1    383    430      -0.000    
     41      1    397    445      -0.000    
     42      1    360    403      -0.000    
     43      1    350    401      -0.000    
     44      1    346    393      -73.62    
     45      1    333    387      -73.62    
     46      1    328    384      -73.62    
     47      1    326    383      -73.62    
     48      1    323    378      -73.62    
     49      1    321    378      -73.62    
     50      1    322    376      -73.62    
     51      1    316    374      -73.62    
     52      1    311    371      -73.62    
     53      1    307    369      -73.62    
     54      1    305    368      -73.62    
     55      1    303    368      -73.62    
     56      1    300    369      -73.62    
     57      1    293    364      -73.62    
     58      1    292    362      -73.62    
     59      1    278    350      -73.62    
     60      1    274    351      -73.62    
     61      1    273    350      -73.62    
     62      1    271    350      -73.62    
     63      1    267    348      -73.62    
     64      1    263    348      -73.62    
     65      1    263    348      -73.62    
     66      1    248    347      -73.62    
     67      1    243    342      -73.62    
     68      1    242    339      -73.62    
     69      1    238    341      -73.62    
     70      1    233    340      -73.62    
     71      1    232    340      -73.62    
     72      1    229    341      -73.62    
     73      1    227    341      -73.62    
     74      1    219    342      -73.62    
     75      1    219    336      -73.62    
     76      1    199    329      -73.62    
     77      1    191    332      -145.5    
     78      1    190    332      -145.5    
     79      1    130    310      -145.5    
     80      1    123    305      -145.5    
     81      1    104    289      -145.5    
     82      1     96    287      -510.6    
     83      1     95    284      -510.6    
     84      1     95    280      -510.6    
     85      1     93    276      -510.6    
     86      1     94    275      -510.6    
     87      1     90    277      -510.6    
     88      1     90    273      -510.6    
     89      1     86    271      -510.6    
     90      1     85    270      -510.6    
     91      1     84    265      -510.6    
     92      1     85    265      -510.6    
     93      1     84    264      -510.6    
     94      1     79    263      -510.6    
     95      1     79    263      -510.6    
     96      1     76    262      -510.6    
     97      1     73    257      -510.6    
     98      1     74    255      -510.6    
     99      1     71    255      -510.6    
    100      1     66    253      -510.6    
    101      1     68    252      -510.6    
    102      1     69    250      -510.6    
    103      1     65    248      -510.6    
    104      1     68    248      -510.6    
    105      1     69    247      -510.6    
    106      1     73    247      -510.6    
    107      1     64    246      -510.6    
    108      1     69    245      -510.6    
    109      1     72    245      -510.6    
    110      1     69    241      -510.6    
    111      1     73    238      -510.6    
    112      1     70    238      -510.6    
    113      1     76    263      -510.6    
    114      1     66    232      -620.9    
    115      1     69    229      -620.9    
    116      1     71    228      -620.9    
    117      1     69    227      -620.9    
    118      1     72    219      -620.9    
    119      1     72    218      -620.9    
    120      1     72    218      -620.9    
    121      1     73    217      -620.9    
    122      1     77    219      -620.9    
    123      1     78    219      -620.9    
    124      1     83    213      -620.9    
    125      1     77    213      -620.9    
    126      1     81    211      -620.9    
    127      1     81    210      -620.9    
    128      1     81    210      -620.9    
    129      1     82    208      -620.9    
    130      1     80    205      -620.9    
    131      1     86    202      -620.9    
    132      1     84    200      -620.9    
    133      1     89    200      -620.9    
    134      1     89    199      -620.9    
    135      1     88    199      -620.9    
    136      1     86    199      -620.9    
    137      1     85    199      -620.9    
    138      1     82    197      -620.9    
    139      1     86    197      -620.9    
    140      1     88    198      -620.9    
    141      1     90    192      -620.9    
    142      1     89    191      -620.9    
    143      1     84    192      -620.9    
    144      1     91    189      -620.9    
    145      1     92    185      -620.9    
    146      1     87    183      -620.9    
    147      1     92    182      -620.9    
    148      1     90    182      -620.9    
    149      1     88    179      -620.9    
    150      1     89    176      -620.9    
    151      1     92    172      -620.9    
    152      1     93    164      -620.9    
    153      1     94    162      -620.9    
    154      1    103    156      -620.9    
    155      1    103    156      -620.9    
    156      1     96    154      -620.9    
    157      1     97    153      -620.9    
    158      1    122    139      -620.9    
    159      1     92     77      -620.9    
    160      1     94     77      -620.9    
    161      1     94     73      -620.9    
    162      1     97    152      -620.9    
    163      1    118    337      -666.7    
    164      1    133    319      -2678.    
    165      1    131    320      -3951.    
    166      1    133    321      -2956.    
    167      1    161    329      -2141.    
    168      1    178    330      -551.0    
    169      1    163    330      -1122.    
    170      1    131    320      -2473.    
    171      1    129    315      -3937.    
    172      1    162    329      -1959.    
    173      1    131    311      -826.1    
    174      1    221    340      -1994.    
    175      1    220    340      -1034.    
    176      1    221    340      -667.7    
    177      1    137    322      -2082.    
    178      1    137    321      -1407.    
    179      1    185    329      -2012.    
    180      1    183    329      -1473.    
    181      1    175    329      -585.3    
    182      1     79    243      -1490.    
    183      1     77    245      -2414.    
    184      1    199    329      -1617.    
    185      1    198    330      -2514.    
    186      1    140    328      -972.1    
    187      1    143    327      -863.6    
    188      1    139    327      -1331.    

    188 WELLS

 REUSING NON-PARAMETER DRAINS FROM LAST STRESS PERIOD

   1061 DRAINS

 REUSING SURF FROM LAST STRESS PERIOD

 REUSING EVTR FROM LAST STRESS PERIOD

 REUSING EXDP FROM LAST STRESS PERIOD



                           RECHARGE
 READING ON UNIT   19 WITH FORMAT: (510E15.6)          

 SOLVING FOR HEAD 
                                                   Max.-Head-Change                        Max.-Flux-Residual
  Residual-Control   Outer-Iter.   Inner-Iter.     Column Row Layer    Max.-Head-Change    Column Row Layer    Max.-Flux-Residual            L2-New               L2-Old           Solver-Max-Delh
          0                 1           3           263   79     1       0.2058166300E+02     348  263    1       0.7483225247E+04      0.3294888097E+05      0.4335152940E+02      0.2058166300E+02
          0                 2           2           263   79     1      -0.1991792413E+01     348  263    1      -0.8529593149E+03      0.3415140872E+04      0.3294888097E+05     -0.1991792413E+01
          0                 3           2           263   79     1      -0.1020798760E+00     348  263    1      -0.4307435081E+02      0.1721207962E+03      0.3415140872E+04     -0.1020798760E+00
          0                 4           2           457  453     1       0.1217051881E-01     348  263    1      -0.2154372120E+01      0.8606007949E+01      0.1721207962E+03      0.1217051881E-01

    ------------------------------------------------
       NWT REQUIRED            4 OUTER ITERATIONS 
       AND A TOTAL OF          9 INNER ITERATIONS.
    ------------------------------------------------

 NO OUTPUT CONTROL FOR STRESS PERIOD   64   TIME STEP    1

 WELLS WITH REDUCED PUMPING FOR STRESS PERIOD    64 TIME STEP     1
   LAY   ROW   COL         APPL.Q          ACT.Q        GW-HEAD       CELL-BOT
     1    77   213  -0.620891E+03  -0.257102E+03   0.153295E+03   0.148000E+03
     1    92    77  -0.620891E+03  -0.175631E+03  -0.845441E+02  -0.930000E+02
     1    94    77  -0.620891E+03  -0.135064E+03  -0.951870E+02  -0.102000E+03
     1    94    73  -0.620891E+03  -0.157263E+03  -0.673634E+02  -0.740000E+02


 SOLVING FOR HEAD 
                                                   Max.-Head-Change                        Max.-Flux-Residual
  Residual-Control   Outer-Iter.   Inner-Iter.     Column Row Layer    Max.-Head-Change    Column Row Layer    Max.-Flux-Residual            L2-New               L2-Old           Solver-Max-Delh
          0                 1           3           263   79     1       0.8659749393E+01     393  346    1       0.3073101166E+04      0.1469638057E+05      0.8606007949E+01      0.8659749393E+01
          0                 2           2           263   79     1      -0.8039769878E+00     393  346    1      -0.3075064419E+03      0.1482600127E+04      0.1469638057E+05     -0.8039769878E+00
          0                 3           2           263   79     1      -0.4082665916E-01     393  346    1      -0.1537677993E+02      0.7433255437E+02      0.1482600127E+04     -0.4082665916E-01

    ------------------------------------------------
       NWT REQUIRED            3 OUTER ITERATIONS 
       AND A TOTAL OF          7 INNER ITERATIONS.
    ------------------------------------------------

 NO OUTPUT CONTROL FOR STRESS PERIOD   64   TIME STEP    2

 WELLS WITH REDUCED PUMPING FOR STRESS PERIOD    64 TIME STEP     2
   LAY   ROW   COL         APPL.Q          ACT.Q        GW-HEAD       CELL-BOT
     1    77   213  -0.620891E+03  -0.271670E+03   0.153484E+03   0.148000E+03
     1    92    77  -0.620891E+03  -0.225267E+03  -0.831782E+02  -0.930000E+02
     1    94    77  -0.620891E+03  -0.137974E+03  -0.951033E+02  -0.102000E+03
     1    94    73  -0.620891E+03  -0.161423E+03  -0.672616E+02  -0.740000E+02


 SOLVING FOR HEAD 
                                                   Max.-Head-Change                        Max.-Flux-Residual
  Residual-Control   Outer-Iter.   Inner-Iter.     Column Row Layer    Max.-Head-Change    Column Row Layer    Max.-Flux-Residual            L2-New               L2-Old           Solver-Max-Delh
          0                 1           3           263   79     1       0.3912511819E+01     393  346    1       0.2659099030E+04      0.1100518827E+05      0.7433255437E+02      0.3912511819E+01
          0                 2           2           263   79     1      -0.3592215102E+00     393  346    1      -0.2660853981E+03      0.1110757497E+04      0.1100518827E+05     -0.3592215102E+00
          0                 3           2           263   79     1      -0.1812570695E-01     393  346    1      -0.1330557309E+02      0.5552011244E+02      0.1110757497E+04     -0.1812570695E-01

    ------------------------------------------------
       NWT REQUIRED            3 OUTER ITERATIONS 
       AND A TOTAL OF          7 INNER ITERATIONS.
    ------------------------------------------------

 NO OUTPUT CONTROL FOR STRESS PERIOD   64   TIME STEP    3

 WELLS WITH REDUCED PUMPING FOR STRESS PERIOD    64 TIME STEP     3
   LAY   ROW   COL         APPL.Q          ACT.Q        GW-HEAD       CELL-BOT
     1    77   213  -0.620891E+03  -0.285807E+03   0.153667E+03   0.148000E+03
     1    92    77  -0.620891E+03  -0.264707E+03  -0.821359E+02  -0.930000E+02
     1    94    77  -0.620891E+03  -0.140861E+03  -0.950209E+02  -0.102000E+03
     1    94    73  -0.620891E+03  -0.165543E+03  -0.671616E+02  -0.740000E+02


 SOLVING FOR HEAD 
                                                   Max.-Head-Change                        Max.-Flux-Residual
  Residual-Control   Outer-Iter.   Inner-Iter.     Column Row Layer    Max.-Head-Change    Column Row Layer    Max.-Flux-Residual            L2-New               L2-Old           Solver-Max-Delh
          0                 1           3           263   79     1       0.1926104377E+01     374  316    1       0.2332307118E+04      0.9195177245E+04      0.5552011244E+02      0.1926104377E+01
          0                 2           2           263   79     1      -0.1698607264E+00     374  316    1      -0.2333355586E+03      0.9219391343E+03      0.9195177245E+04     -0.1698607264E+00
          0                 3           2           457  453     1       0.1194948864E-01     374  316    1      -0.1166755640E+02      0.4620771675E+02      0.9219391343E+03      0.1194948864E-01

    ------------------------------------------------
       NWT REQUIRED            3 OUTER ITERATIONS 
       AND A TOTAL OF          7 INNER ITERATIONS.
    ------------------------------------------------

 NO OUTPUT CONTROL FOR STRESS PERIOD   64   TIME STEP    4

 WELLS WITH REDUCED PUMPING FOR STRESS PERIOD    64 TIME STEP     4
   LAY   ROW   COL         APPL.Q          ACT.Q        GW-HEAD       CELL-BOT
     1    77   213  -0.620891E+03  -0.299495E+03   0.153843E+03   0.148000E+03
     1    92    77  -0.620891E+03  -0.295191E+03  -0.813432E+02  -0.930000E+02
     1    94    77  -0.620891E+03  -0.143725E+03  -0.949397E+02  -0.102000E+03
     1    94    73  -0.620891E+03  -0.169622E+03  -0.670633E+02  -0.740000E+02


 SOLVING FOR HEAD 
                                                   Max.-Head-Change                        Max.-Flux-Residual
  Residual-Control   Outer-Iter.   Inner-Iter.     Column Row Layer    Max.-Head-Change    Column Row Layer    Max.-Flux-Residual            L2-New               L2-Old           Solver-Max-Delh
          0                 1           3           263   78     1       0.1167428847E+01     374  316    1       0.2086583666E+04      0.8069716578E+04      0.4620771675E+02      0.1167428847E+01
          0                 2           2           263   78     1      -0.1021248719E+00     374  316    1      -0.2087596614E+03      0.8163487494E+03      0.8069716578E+04     -0.1021248719E+00
          0                 3           2           457  453     1       0.1187513112E-01     374  316    1      -0.1043873772E+02      0.4094482738E+02      0.8163487494E+03      0.1187513112E-01

    ------------------------------------------------
       NWT REQUIRED            3 OUTER ITERATIONS 
       AND A TOTAL OF          7 INNER ITERATIONS.
    ------------------------------------------------

 NO OUTPUT CONTROL FOR STRESS PERIOD   64   TIME STEP    5

 WELLS WITH REDUCED PUMPING FOR STRESS PERIOD    64 TIME STEP     5
   LAY   ROW   COL         APPL.Q          ACT.Q        GW-HEAD       CELL-BOT
     1    77   213  -0.620891E+03  -0.312723E+03   0.154013E+03   0.148000E+03
     1    92    77  -0.620891E+03  -0.318448E+03  -0.807412E+02  -0.930000E+02
     1    94    77  -0.620891E+03  -0.146564E+03  -0.948596E+02  -0.102000E+03
     1    94    73  -0.620891E+03  -0.173657E+03  -0.669667E+02  -0.740000E+02


 SOLVING FOR HEAD 
                                                   Max.-Head-Change                        Max.-Flux-Residual
  Residual-Control   Outer-Iter.   Inner-Iter.     Column Row Layer    Max.-Head-Change    Column Row Layer    Max.-Flux-Residual            L2-New               L2-Old           Solver-Max-Delh
          0                 1           3           264   78     1       0.9786366017E+00     378  321    1       0.1872780595E+04      0.7283896952E+04      0.4094482738E+02      0.9786366017E+00
          0                 2           2           264   78     1      -0.8588808522E-01     378  321    1      -0.1873929025E+03      0.7315889959E+03      0.7283896952E+04     -0.8588808522E-01

    ------------------------------------------------
       NWT REQUIRED            2 OUTER ITERATIONS 
       AND A TOTAL OF          5 INNER ITERATIONS.
    ------------------------------------------------

 NO OUTPUT CONTROL FOR STRESS PERIOD   64   TIME STEP    6

 WELLS WITH REDUCED PUMPING FOR STRESS PERIOD    64 TIME STEP     6
   LAY   ROW   COL         APPL.Q          ACT.Q        GW-HEAD       CELL-BOT
     1    77   213  -0.620891E+03  -0.325547E+03   0.154178E+03   0.148000E+03
     1    92    77  -0.620891E+03  -0.336173E+03  -0.802818E+02  -0.930000E+02
     1    94    77  -0.620891E+03  -0.149393E+03  -0.947803E+02  -0.102000E+03
     1    94    73  -0.620891E+03  -0.177667E+03  -0.668714E+02  -0.740000E+02


 SOLVING FOR HEAD 
                                                   Max.-Head-Change                        Max.-Flux-Residual
  Residual-Control   Outer-Iter.   Inner-Iter.     Column Row Layer    Max.-Head-Change    Column Row Layer    Max.-Flux-Residual            L2-New               L2-Old           Solver-Max-Delh
          0                 1           3           264   78     1       0.8101330378E+00     378  321    1       0.1707216777E+04      0.6693237784E+04      0.3658588593E+02      0.8101330378E+00
          0                 2           2           264   78     1      -0.7097145427E-01     378  321    1      -0.1708347087E+03      0.6729989826E+03      0.6693237784E+04     -0.7097145427E-01

    ------------------------------------------------
       NWT REQUIRED            2 OUTER ITERATIONS 
       AND A TOTAL OF          5 INNER ITERATIONS.
    ------------------------------------------------

 NO OUTPUT CONTROL FOR STRESS PERIOD   64   TIME STEP    7

 WELLS WITH REDUCED PUMPING FOR STRESS PERIOD    64 TIME STEP     7
   LAY   ROW   COL         APPL.Q          ACT.Q        GW-HEAD       CELL-BOT
     1    77   213  -0.620891E+03  -0.337900E+03   0.154337E+03   0.148000E+03
     1    92    77  -0.620891E+03  -0.349567E+03  -0.799334E+02  -0.930000E+02
     1    94    77  -0.620891E+03  -0.152195E+03  -0.947023E+02  -0.102000E+03
     1    94    73  -0.620891E+03  -0.181631E+03  -0.667776E+02  -0.740000E+02


 SOLVING FOR HEAD 
                                                   Max.-Head-Change                        Max.-Flux-Residual
  Residual-Control   Outer-Iter.   Inner-Iter.     Column Row Layer    Max.-Head-Change    Column Row Layer    Max.-Flux-Residual            L2-New               L2-Old           Solver-Max-Delh
          0                 1           3           343  217     1       0.7507818173E+00     378  321    1       0.1560341467E+04      0.6234881893E+04      0.3364632428E+02      0.7507818173E+00
          0                 2           2           343  217     1      -0.6533525851E-01     378  321    1      -0.1561423559E+03      0.6236467624E+03      0.6234881893E+04     -0.6533525851E-01

    ------------------------------------------------
       NWT REQUIRED            2 OUTER ITERATIONS 
       AND A TOTAL OF          5 INNER ITERATIONS.
    ------------------------------------------------

 NO OUTPUT CONTROL FOR STRESS PERIOD   64   TIME STEP    8

 WELLS WITH REDUCED PUMPING FOR STRESS PERIOD    64 TIME STEP     8
   LAY   ROW   COL         APPL.Q          ACT.Q        GW-HEAD       CELL-BOT
     1    77   213  -0.620891E+03  -0.349784E+03   0.154490E+03   0.148000E+03
     1    92    77  -0.620891E+03  -0.359680E+03  -0.796693E+02  -0.930000E+02
     1    94    77  -0.620891E+03  -0.154971E+03  -0.946253E+02  -0.102000E+03
     1    94    73  -0.620891E+03  -0.185548E+03  -0.666856E+02  -0.740000E+02


 SOLVING FOR HEAD 
                                                   Max.-Head-Change                        Max.-Flux-Residual
  Residual-Control   Outer-Iter.   Inner-Iter.     Column Row Layer    Max.-Head-Change    Column Row Layer    Max.-Flux-Residual            L2-New               L2-Old           Solver-Max-Delh
          0                 1           3           343  217     1       0.7013750289E+00     378  321    1       0.1429635688E+04      0.5868533698E+04      0.3119104802E+02      0.7013750289E+00
          0                 2           2           343  217     1      -0.6101383937E-01     378  321    1      -0.1430652300E+03      0.5877099943E+03      0.5868533698E+04     -0.6101383937E-01

    ------------------------------------------------
       NWT REQUIRED            2 OUTER ITERATIONS 
       AND A TOTAL OF          5 INNER ITERATIONS.
    ------------------------------------------------

 NO OUTPUT CONTROL FOR STRESS PERIOD   64   TIME STEP    9

 WELLS WITH REDUCED PUMPING FOR STRESS PERIOD    64 TIME STEP     9
   LAY   ROW   COL         APPL.Q          ACT.Q        GW-HEAD       CELL-BOT
     1    77   213  -0.620891E+03  -0.361204E+03   0.154639E+03   0.148000E+03
     1    92    77  -0.620891E+03  -0.367313E+03  -0.794691E+02  -0.930000E+02
     1    94    77  -0.620891E+03  -0.157721E+03  -0.945496E+02  -0.102000E+03
     1    94    73  -0.620891E+03  -0.189416E+03  -0.665951E+02  -0.740000E+02


 SOLVING FOR HEAD 
                                                   Max.-Head-Change                        Max.-Flux-Residual
  Residual-Control   Outer-Iter.   Inner-Iter.     Column Row Layer    Max.-Head-Change    Column Row Layer    Max.-Flux-Residual            L2-New               L2-Old           Solver-Max-Delh
          0                 1           3           343  217     1       0.6497907211E+00     378  321    1       0.1312979033E+04      0.5568745026E+04      0.2938935058E+02      0.6497907211E+00
          0                 2           2           343  217     1      -0.5649969902E-01     378  321    1      -0.1313922175E+03      0.5570812530E+03      0.5568745026E+04     -0.5649969902E-01

    ------------------------------------------------
       NWT REQUIRED            2 OUTER ITERATIONS 
       AND A TOTAL OF          5 INNER ITERATIONS.
    ------------------------------------------------

 OUTPUT CONTROL FOR STRESS PERIOD   64   TIME STEP   10
    SAVE HEAD FOR ALL LAYERS

 WELLS WITH REDUCED PUMPING FOR STRESS PERIOD    64 TIME STEP    10
   LAY   ROW   COL         APPL.Q          ACT.Q        GW-HEAD       CELL-BOT
     1    77   213  -0.620891E+03  -0.372168E+03   0.154781E+03   0.148000E+03
     1    92    77  -0.620891E+03  -0.373070E+03  -0.793176E+02  -0.930000E+02
     1    94    77  -0.620891E+03  -0.160442E+03  -0.944750E+02  -0.102000E+03
     1    94    73  -0.620891E+03  -0.193236E+03  -0.665062E+02  -0.740000E+02


 HEAD WILL BE SAVED ON UNIT   51 AT END OF TIME STEP   10, STRESS PERIOD   64
1
  VOLUMETRIC BUDGET FOR ENTIRE MODEL AT END OF TIME STEP   10, STRESS PERIOD  64
  ------------------------------------------------------------------------------

     CUMULATIVE VOLUMES      L**3       RATES FOR THIS TIME STEP      L**3/T
     ------------------                 ------------------------

           IN:                                      IN:
           ---                                      ---
             STORAGE =   633467456.0000               STORAGE =      187598.5781
       CONSTANT HEAD =    98966504.0000         CONSTANT HEAD =       52123.9141
               WELLS =           0.0000                 WELLS =           0.0000
              DRAINS =           0.0000                DRAINS =           0.0000
                  ET =           0.0000                    ET =           0.0000
            RECHARGE =   363773248.0000              RECHARGE =       68420.4219

            TOTAL IN =  1096207232.0000              TOTAL IN =      308142.9375

          OUT:                                     OUT:
          ----                                     ----
             STORAGE =   203761616.0000               STORAGE =       75917.3516
       CONSTANT HEAD =           0.0000         CONSTANT HEAD =           0.0000
               WELLS =   581981696.0000                 WELLS =       98521.9766
              DRAINS =   219152800.0000                DRAINS =       97085.9922
                  ET =    89757224.0000                    ET =       36064.1914
            RECHARGE =      252575.6250              RECHARGE =           0.0000

           TOTAL OUT =  1094905856.0000             TOTAL OUT =      307589.5000

            IN - OUT =     1301376.0000              IN - OUT =         553.4375

 PERCENT DISCREPANCY =           0.12     PERCENT DISCREPANCY =           0.18






         TIME SUMMARY AT END OF TIME STEP   10 IN STRESS PERIOD   64
                    SECONDS     MINUTES      HOURS       DAYS        YEARS
                    -----------------------------------------------------------
   TIME STEP LENGTH 2.62656E+05  4377.6      72.960      3.0400     8.32307E-03
 STRESS PERIOD TIME 2.62656E+06  43776.      729.60      30.400     8.32307E-02
         TOTAL TIME 1.68101E+08 2.80168E+06  46695.      1945.6      5.3268    
1
1
                            STRESS PERIOD NO.   65, LENGTH =   30.40000    
                            -----------------------------------------------

                              NUMBER OF TIME STEPS =    10

                               MULTIPLIER FOR DELT =     1.000

                            INITIAL TIME STEP SIZE =   3.040000    

 WELL NO.  LAYER   ROW   COL   STRESS RATE         
 --------------------------------------------------
      1      1     69    225      -5530.    
      2      1     71    224       0.000    
      3      1     74    220       0.000    
      4      1     73    220       0.000    
      5      1     71    223       0.000    
      6      1     71    223       0.000    
      7      1     72    223       0.000    
      8      1     92    173       0.000    
      9      1     94    174       0.000    
     10      1     93    175       0.000    
     11      1    203    328       0.000    
     12      1    438    460      -550.5    
     13      1    436    461      -550.5    
     14      1    410    454      -550.5    
     15      1    433    460      -550.5    
     16      1    431    462      -550.5    
     17      1    417    459      -550.5    
     18      1    418    458      -550.5    
     19      1    414    455      -550.5    
     20      1    443    464      -550.5    
     21      1    379    425      -550.5    
     22      1    362    405      -550.5    
     23      1    361    405      -550.5    
     24      1    362    406      -550.5    
     25      1    363    408      -550.5    
     26      1    364    410      -550.5    
     27      1    369    418      -550.5    
     28      1    367    417      -550.5    
     29      1    365    415      -550.5    
     30      1    402    447      -550.5    
     31      1    400    446      -550.5    
     32      1    392    444      -550.5    
     33      1    391    441      -550.5    
     34      1    403    448      -550.5    
     35      1    405    447      -550.5    
     36      1    362    410      -550.5    
     37      1    362    411      -550.5    
     38      1    363    412      -550.5    
     39      1    375    421      -550.5    
     40      1    383    430      -550.5    
     41      1    397    445      -550.5    
     42      1    360    403      -550.5    
     43      1    350    401      -550.5    
     44      1    346    393      -630.6    
     45      1    333    387      -630.6    
     46      1    328    384      -630.6    
     47      1    326    383      -630.6    
     48      1    323    378      -630.6    
     49      1    321    378      -630.6    
     50      1    322    376      -630.6    
     51      1    316    374      -630.6    
     52      1    311    371      -630.6    
     53      1    307    369      -630.6    
     54      1    305    368      -630.6    
     55      1    303    368      -630.6    
     56      1    300    369      -630.6    
     57      1    293    364      -630.6    
     58      1    292    362      -630.6    
     59      1    278    350      -630.6    
     60      1    274    351      -630.6    
     61      1    273    350      -630.6    
     62      1    271    350      -630.6    
     63      1    267    348      -630.6    
     64      1    263    348      -630.6    
     65      1    263    348      -630.6    
     66      1    248    347      -630.6    
     67      1    243    342      -630.6    
     68      1    242    339      -630.6    
     69      1    238    341      -630.6    
     70      1    233    340      -630.6    
     71      1    232    340      -630.6    
     72      1    229    341      -630.6    
     73      1    227    341      -630.6    
     74      1    219    342      -630.6    
     75      1    219    336      -630.6    
     76      1    199    329      -630.6    
     77      1    191    332      -854.0    
     78      1    190    332      -854.0    
     79      1    130    310      -854.0    
     80      1    123    305      -854.0    
     81      1    104    289      -854.0    
     82      1     96    287      -1045.    
     83      1     95    284      -1045.    
     84      1     95    280      -1045.    
     85      1     93    276      -1045.    
     86      1     94    275      -1045.    
     87      1     90    277      -1045.    
     88      1     90    273      -1045.    
     89      1     86    271      -1045.    
     90      1     85    270      -1045.    
     91      1     84    265      -1045.    
     92      1     85    265      -1045.    
     93      1     84    264      -1045.    
     94      1     79    263      -1045.    
     95      1     79    263      -1045.    
     96      1     76    262      -1045.    
     97      1     73    257      -1045.    
     98      1     74    255      -1045.    
     99      1     71    255      -1045.    
    100      1     66    253      -1045.    
    101      1     68    252      -1045.    
    102      1     69    250      -1045.    
    103      1     65    248      -1045.    
    104      1     68    248      -1045.    
    105      1     69    247      -1045.    
    106      1     73    247      -1045.    
    107      1     64    246      -1045.    
    108      1     69    245      -1045.    
    109      1     72    245      -1045.    
    110      1     69    241      -1045.    
    111      1     73    238      -1045.    
    112      1     70    238      -1045.    
    113      1     76    263      -1045.    
    114      1     66    232      -728.1    
    115      1     69    229      -728.1    
    116      1     71    228      -728.1    
    117      1     69    227      -728.1    
    118      1     72    219      -728.1    
    119      1     72    218      -728.1    
    120      1     72    218      -728.1    
    121      1     73    217      -728.1    
    122      1     77    219      -728.1    
    123      1     78    219      -728.1    
    124      1     83    213      -728.1    
    125      1     77    213      -728.1    
    126      1     81    211      -728.1    
    127      1     81    210      -728.1    
    128      1     81    210      -728.1    
    129      1     82    208      -728.1    
    130      1     80    205      -728.1    
    131      1     86    202      -728.1    
    132      1     84    200      -728.1    
    133      1     89    200      -728.1    
    134      1     89    199      -728.1    
    135      1     88    199      -728.1    
    136      1     86    199      -728.1    
    137      1     85    199      -728.1    
    138      1     82    197      -728.1    
    139      1     86    197      -728.1    
    140      1     88    198      -728.1    
    141      1     90    192      -728.1    
    142      1     89    191      -728.1    
    143      1     84    192      -728.1    
    144      1     91    189      -728.1    
    145      1     92    185      -728.1    
    146      1     87    183      -728.1    
    147      1     92    182      -728.1    
    148      1     90    182      -728.1    
    149      1     88    179      -728.1    
    150      1     89    176      -728.1    
    151      1     92    172      -728.1    
    152      1     93    164      -728.1    
    153      1     94    162      -728.1    
    154      1    103    156      -728.1    
    155      1    103    156      -728.1    
    156      1     96    154      -728.1    
    157      1     97    153      -728.1    
    158      1    122    139      -728.1    
    159      1     92     77      -728.1    
    160      1     94     77      -728.1    
    161      1     94     73      -728.1    
    162      1     97    152      -728.1    
    163      1    118    337      -666.7    
    164      1    133    319      -2678.    
    165      1    131    320      -3951.    
    166      1    133    321      -2956.    
    167      1    161    329      -2141.    
    168      1    178    330      -551.0    
    169      1    163    330      -1122.    
    170      1    131    320      -2473.    
    171      1    129    315      -3937.    
    172      1    162    329      -1959.    
    173      1    131    311      -826.1    
    174      1    221    340      -1994.    
    175      1    220    340      -1034.    
    176      1    221    340      -667.7    
    177      1    137    322      -2082.    
    178      1    137    321      -1407.    
    179      1    185    329      -2012.    
    180      1    183    329      -1473.    
    181      1    175    329      -585.3    
    182      1     79    243      -1490.    
    183      1     77    245      -2414.    
    184      1    199    329      -1617.    
    185      1    198    330      -2514.    
    186      1    140    328      -972.1    
    187      1    143    327      -863.6    
    188      1    139    327      -1331.    

    188 WELLS

 REUSING NON-PARAMETER DRAINS FROM LAST STRESS PERIOD

   1061 DRAINS

 REUSING SURF FROM LAST STRESS PERIOD

 REUSING EVTR FROM LAST STRESS PERIOD

 REUSING EXDP FROM LAST STRESS PERIOD



                           RECHARGE
 READING ON UNIT   19 WITH FORMAT: (510E15.6)          

 SOLVING FOR HEAD 
                                                   Max.-Head-Change                        Max.-Flux-Residual
  Residual-Control   Outer-Iter.   Inner-Iter.     Column Row Layer    Max.-Head-Change    Column Row Layer    Max.-Flux-Residual            L2-New               L2-Old           Solver-Max-Delh
          0                 1           3           263   79     1      -0.3016590895E+01     348  263    1      -0.1060270719E+04      0.7688227355E+04      0.2785487455E+02     -0.3016590895E+01
          0                 2           2           263   79     1       0.2555538839E+00     348  263    1       0.1055433502E+03      0.7716726911E+03      0.7688227355E+04      0.2555538839E+00
          0                 3           2           263   79     1       0.1275518988E-01     348  263    1       0.5273585659E+01      0.3857122131E+02      0.7716726911E+03      0.1275518988E-01

    ------------------------------------------------
       NWT REQUIRED            3 OUTER ITERATIONS 
       AND A TOTAL OF          7 INNER ITERATIONS.
    ------------------------------------------------

 NO OUTPUT CONTROL FOR STRESS PERIOD   65   TIME STEP    1

 WELLS WITH REDUCED PUMPING FOR STRESS PERIOD    65 TIME STEP     1
   LAY   ROW   COL         APPL.Q          ACT.Q        GW-HEAD       CELL-BOT
     1    77   213  -0.728135E+03  -0.446622E+03   0.154895E+03   0.148000E+03
     1    92    77  -0.728135E+03  -0.426879E+03  -0.795559E+02  -0.930000E+02
     1    94    77  -0.728135E+03  -0.190870E+03  -0.944118E+02  -0.102000E+03
     1    94    73  -0.728135E+03  -0.230397E+03  -0.664315E+02  -0.740000E+02


 SOLVING FOR HEAD 
                                                   Max.-Head-Change                        Max.-Flux-Residual
  Residual-Control   Outer-Iter.   Inner-Iter.     Column Row Layer    Max.-Head-Change    Column Row Layer    Max.-Flux-Residual            L2-New               L2-Old           Solver-Max-Delh
          0                 1           3           263   79     1      -0.1190051945E+01     139  122    1       0.6742608847E+03      0.4943913127E+04      0.3857122131E+02     -0.1190051945E+01
          0                 2           2           263   79     1       0.1022968813E+00     139  122    1      -0.6743630849E+02      0.4944959191E+03      0.4943913127E+04      0.1022968813E+00
          0                 3           2           457  453     1       0.1157104144E-01     139  122    1      -0.3371888870E+01      0.2472713874E+02      0.4944959191E+03      0.1157104144E-01

    ------------------------------------------------
       NWT REQUIRED            3 OUTER ITERATIONS 
       AND A TOTAL OF          7 INNER ITERATIONS.
    ------------------------------------------------

 NO OUTPUT CONTROL FOR STRESS PERIOD   65   TIME STEP    2

 WELLS WITH REDUCED PUMPING FOR STRESS PERIOD    65 TIME STEP     2
   LAY   ROW   COL         APPL.Q          ACT.Q        GW-HEAD       CELL-BOT
     1    77   213  -0.728135E+03  -0.456337E+03   0.155005E+03   0.148000E+03
     1    92    77  -0.728135E+03  -0.418964E+03  -0.797327E+02  -0.930000E+02
     1    94    77  -0.728135E+03  -0.193548E+03  -0.943497E+02  -0.102000E+03
     1    94    73  -0.728135E+03  -0.234118E+03  -0.663583E+02  -0.740000E+02


 SOLVING FOR HEAD 
                                                   Max.-Head-Change                        Max.-Flux-Residual
  Residual-Control   Outer-Iter.   Inner-Iter.     Column Row Layer    Max.-Head-Change    Column Row Layer    Max.-Flux-Residual            L2-New               L2-Old           Solver-Max-Delh
          0                 1           3           263   79     1      -0.4766065147E+00     139  122    1       0.6543346237E+03      0.4274687092E+04      0.2472713874E+02     -0.4766065147E+00
          0                 2           2           263   79     1       0.4113349059E-01     139  122    1      -0.6544325249E+02      0.4275662241E+03      0.4274687092E+04      0.4113349059E-01

    ------------------------------------------------
       NWT REQUIRED            2 OUTER ITERATIONS 
       AND A TOTAL OF          5 INNER ITERATIONS.
    ------------------------------------------------

 NO OUTPUT CONTROL FOR STRESS PERIOD   65   TIME STEP    3

 WELLS WITH REDUCED PUMPING FOR STRESS PERIOD    65 TIME STEP     3
   LAY   ROW   COL         APPL.Q          ACT.Q        GW-HEAD       CELL-BOT
     1    77   213  -0.728135E+03  -0.465656E+03   0.155110E+03   0.148000E+03
     1    92    77  -0.728135E+03  -0.413041E+03  -0.798646E+02  -0.930000E+02
     1    94    77  -0.728135E+03  -0.196202E+03  -0.942885E+02  -0.102000E+03
     1    94    73  -0.728135E+03  -0.237793E+03  -0.662863E+02  -0.740000E+02


 SOLVING FOR HEAD 
                                                   Max.-Head-Change                        Max.-Flux-Residual
  Residual-Control   Outer-Iter.   Inner-Iter.     Column Row Layer    Max.-Head-Change    Column Row Layer    Max.-Flux-Residual            L2-New               L2-Old           Solver-Max-Delh
          0                 1           3           343  217     1       0.3090565981E+00     197   82    1       0.6434386375E+03      0.3918550472E+04      0.4275662241E+03      0.3090565981E+00
          0                 2           2           343  217     1      -0.2678500939E-01     197   82    1      -0.6435219338E+02      0.3919220931E+03      0.3918550472E+04     -0.2678500939E-01

    ------------------------------------------------
       NWT REQUIRED            2 OUTER ITERATIONS 
       AND A TOTAL OF          5 INNER ITERATIONS.
    ------------------------------------------------

 NO OUTPUT CONTROL FOR STRESS PERIOD   65   TIME STEP    4

 WELLS WITH REDUCED PUMPING FOR STRESS PERIOD    65 TIME STEP     4
   LAY   ROW   COL         APPL.Q          ACT.Q        GW-HEAD       CELL-BOT
     1    77   213  -0.728135E+03  -0.474550E+03   0.155211E+03   0.148000E+03
     1    92    77  -0.728135E+03  -0.408629E+03  -0.799627E+02  -0.930000E+02
     1    94    77  -0.728135E+03  -0.198818E+03  -0.942283E+02  -0.102000E+03
     1    94    73  -0.728135E+03  -0.241404E+03  -0.662158E+02  -0.740000E+02


 SOLVING FOR HEAD 
                                                   Max.-Head-Change                        Max.-Flux-Residual
  Residual-Control   Outer-Iter.   Inner-Iter.     Column Row Layer    Max.-Head-Change    Column Row Layer    Max.-Flux-Residual            L2-New               L2-Old           Solver-Max-Delh
          0                 1           3           343  217     1       0.2649803575E+00     197   82    1       0.6328753277E+03      0.3689109197E+04      0.3919220931E+03      0.2649803575E+00
          0                 2           2           343  217     1      -0.2295237857E-01     197   82    1      -0.6329564810E+02      0.3690005466E+03      0.3689109197E+04     -0.2295237857E-01

    ------------------------------------------------
       NWT REQUIRED            2 OUTER ITERATIONS 
       AND A TOTAL OF          5 INNER ITERATIONS.
    ------------------------------------------------

 NO OUTPUT CONTROL FOR STRESS PERIOD   65   TIME STEP    5

 WELLS WITH REDUCED PUMPING FOR STRESS PERIOD    65 TIME STEP     5
   LAY   ROW   COL         APPL.Q          ACT.Q        GW-HEAD       CELL-BOT
     1    77   213  -0.728135E+03  -0.483036E+03   0.155309E+03   0.148000E+03
     1    92    77  -0.728135E+03  -0.405331E+03  -0.800359E+02  -0.930000E+02
     1    94    77  -0.728135E+03  -0.201397E+03  -0.941692E+02  -0.102000E+03
     1    94    73  -0.728135E+03  -0.244951E+03  -0.661467E+02  -0.740000E+02


 SOLVING FOR HEAD 
                                                   Max.-Head-Change                        Max.-Flux-Residual
  Residual-Control   Outer-Iter.   Inner-Iter.     Column Row Layer    Max.-Head-Change    Column Row Layer    Max.-Flux-Residual            L2-New               L2-Old           Solver-Max-Delh
          0                 1           3           197   82     1       0.2553258591E+00     197   82    1       0.6225047956E+03      0.3524889158E+04      0.3690005466E+03      0.2553258591E+00
          0                 2           2           197   82     1      -0.2205316403E-01     197   82    1      -0.6225838874E+02      0.3524988492E+03      0.3524889158E+04     -0.2205316403E-01

    ------------------------------------------------
       NWT REQUIRED            2 OUTER ITERATIONS 
       AND A TOTAL OF          5 INNER ITERATIONS.
    ------------------------------------------------

 NO OUTPUT CONTROL FOR STRESS PERIOD   65   TIME STEP    6

 WELLS WITH REDUCED PUMPING FOR STRESS PERIOD    65 TIME STEP     6
   LAY   ROW   COL         APPL.Q          ACT.Q        GW-HEAD       CELL-BOT
     1    77   213  -0.728135E+03  -0.491133E+03   0.155402E+03   0.148000E+03
     1    92    77  -0.728135E+03  -0.402854E+03  -0.800909E+02  -0.930000E+02
     1    94    77  -0.728135E+03  -0.203939E+03  -0.941112E+02  -0.102000E+03
     1    94    73  -0.728135E+03  -0.248434E+03  -0.660791E+02  -0.740000E+02


 SOLVING FOR HEAD 
                                                   Max.-Head-Change                        Max.-Flux-Residual
  Residual-Control   Outer-Iter.   Inner-Iter.     Column Row Layer    Max.-Head-Change    Column Row Layer    Max.-Flux-Residual            L2-New               L2-Old           Solver-Max-Delh
          0                 1           3           197   82     1       0.2511557723E+00     197   82    1       0.6123243713E+03      0.3399321438E+04      0.3524988492E+03      0.2511557723E+00
          0                 2           2           197   82     1      -0.2169296187E-01     197   82    1      -0.6124014652E+02      0.3399336719E+03      0.3399321438E+04     -0.2169296187E-01

    ------------------------------------------------
       NWT REQUIRED            2 OUTER ITERATIONS 
       AND A TOTAL OF          5 INNER ITERATIONS.
    ------------------------------------------------

 NO OUTPUT CONTROL FOR STRESS PERIOD   65   TIME STEP    7

 WELLS WITH REDUCED PUMPING FOR STRESS PERIOD    65 TIME STEP     7
   LAY   ROW   COL         APPL.Q          ACT.Q        GW-HEAD       CELL-BOT
     1    77   213  -0.728135E+03  -0.498856E+03   0.155493E+03   0.148000E+03
     1    92    77  -0.728135E+03  -0.400981E+03  -0.801324E+02  -0.930000E+02
     1    94    77  -0.728135E+03  -0.206444E+03  -0.940542E+02  -0.102000E+03
     1    94    73  -0.728135E+03  -0.251855E+03  -0.660129E+02  -0.740000E+02


 SOLVING FOR HEAD 
                                                   Max.-Head-Change                        Max.-Flux-Residual
  Residual-Control   Outer-Iter.   Inner-Iter.     Column Row Layer    Max.-Head-Change    Column Row Layer    Max.-Flux-Residual            L2-New               L2-Old           Solver-Max-Delh
          0                 1           3           197   82     1       0.2470622120E+00     197   82    1       0.6023306600E+03      0.3298577094E+04      0.3399336719E+03      0.2470622120E+00
          0                 2           2           197   82     1      -0.2133936992E-01     197   82    1      -0.6024058116E+02      0.3298906533E+03      0.3298577094E+04     -0.2133936992E-01

    ------------------------------------------------
       NWT REQUIRED            2 OUTER ITERATIONS 
       AND A TOTAL OF          5 INNER ITERATIONS.
    ------------------------------------------------

 NO OUTPUT CONTROL FOR STRESS PERIOD   65   TIME STEP    8

 WELLS WITH REDUCED PUMPING FOR STRESS PERIOD    65 TIME STEP     8
   LAY   ROW   COL         APPL.Q          ACT.Q        GW-HEAD       CELL-BOT
     1    77   213  -0.728135E+03  -0.506223E+03   0.155579E+03   0.148000E+03
     1    92    77  -0.728135E+03  -0.399552E+03  -0.801641E+02  -0.930000E+02
     1    94    77  -0.728135E+03  -0.208911E+03  -0.939982E+02  -0.102000E+03
     1    94    73  -0.728135E+03  -0.255212E+03  -0.659482E+02  -0.740000E+02


 SOLVING FOR HEAD 
                                                   Max.-Head-Change                        Max.-Flux-Residual
  Residual-Control   Outer-Iter.   Inner-Iter.     Column Row Layer    Max.-Head-Change    Column Row Layer    Max.-Flux-Residual            L2-New               L2-Old           Solver-Max-Delh
          0                 1           3           197   82     1       0.2430437085E+00     197   82    1       0.5925201793E+03      0.3214923601E+04      0.3298906533E+03      0.2430437085E+00
          0                 2           2           197   82     1      -0.2099226284E-01     197   82    1      -0.5925934406E+02      0.3214888939E+03      0.3214923601E+04     -0.2099226284E-01

    ------------------------------------------------
       NWT REQUIRED            2 OUTER ITERATIONS 
       AND A TOTAL OF          5 INNER ITERATIONS.
    ------------------------------------------------

 NO OUTPUT CONTROL FOR STRESS PERIOD   65   TIME STEP    9

 WELLS WITH REDUCED PUMPING FOR STRESS PERIOD    65 TIME STEP     9
   LAY   ROW   COL         APPL.Q          ACT.Q        GW-HEAD       CELL-BOT
     1    77   213  -0.728135E+03  -0.513251E+03   0.155662E+03   0.148000E+03
     1    92    77  -0.728135E+03  -0.398450E+03  -0.801885E+02  -0.930000E+02
     1    94    77  -0.728135E+03  -0.211341E+03  -0.939432E+02  -0.102000E+03
     1    94    73  -0.728135E+03  -0.258507E+03  -0.658848E+02  -0.740000E+02


 SOLVING FOR HEAD 
                                                   Max.-Head-Change                        Max.-Flux-Residual
  Residual-Control   Outer-Iter.   Inner-Iter.     Column Row Layer    Max.-Head-Change    Column Row Layer    Max.-Flux-Residual            L2-New               L2-Old           Solver-Max-Delh
          0                 1           3           197   82     1       0.2390987514E+00     197   82    1       0.5828893194E+03      0.3143671843E+04      0.3214888939E+03      0.2390987514E+00
          0                 2           2           197   82     1      -0.2065150838E-01     197   82    1      -0.5829607394E+02      0.3149368129E+03      0.3143671843E+04     -0.2065150838E-01

    ------------------------------------------------
       NWT REQUIRED            2 OUTER ITERATIONS 
       AND A TOTAL OF          5 INNER ITERATIONS.
    ------------------------------------------------

 OUTPUT CONTROL FOR STRESS PERIOD   65   TIME STEP   10
    SAVE HEAD FOR ALL LAYERS

 WELLS WITH REDUCED PUMPING FOR STRESS PERIOD    65 TIME STEP    10
   LAY   ROW   COL         APPL.Q          ACT.Q        GW-HEAD       CELL-BOT
     1    77   213  -0.728135E+03  -0.519954E+03   0.155742E+03   0.148000E+03
     1    92    77  -0.728135E+03  -0.397587E+03  -0.802076E+02  -0.930000E+02
     1    94    77  -0.728135E+03  -0.213735E+03  -0.938893E+02  -0.102000E+03
     1    94    73  -0.728135E+03  -0.261741E+03  -0.658227E+02  -0.740000E+02


 HEAD WILL BE SAVED ON UNIT   51 AT END OF TIME STEP   10, STRESS PERIOD   65
1
  VOLUMETRIC BUDGET FOR ENTIRE MODEL AT END OF TIME STEP   10, STRESS PERIOD  65
  ------------------------------------------------------------------------------

     CUMULATIVE VOLUMES      L**3       RATES FOR THIS TIME STEP      L**3/T
     ------------------                 ------------------------

           IN:                                      IN:
           ---                                      ---
             STORAGE =   638225280.0000               STORAGE =      145513.6562
       CONSTANT HEAD =   100551144.0000         CONSTANT HEAD =       52128.1133
               WELLS =           0.0000                 WELLS =           0.0000
              DRAINS =           0.0000                DRAINS =           0.0000
                  ET =           0.0000                    ET =           0.0000
            RECHARGE =   367371008.0000              RECHARGE =      118348.0234

            TOTAL IN =  1106147456.0000              TOTAL IN =      315989.7812

          OUT:                                     OUT:
          ----                                     ----
             STORAGE =   205107712.0000               STORAGE =       33039.9453
       CONSTANT HEAD =           0.0000         CONSTANT HEAD =           0.0000
               WELLS =   586502656.0000                 WELLS =      148765.3438
              DRAINS =   222109088.0000                DRAINS =       97257.1328
                  ET =    90860416.0000                    ET =       36367.0508
            RECHARGE =      252575.6250              RECHARGE =           0.0000

           TOTAL OUT =  1104832384.0000             TOTAL OUT =      315429.4688

            IN - OUT =     1315072.0000              IN - OUT =         560.3125

 PERCENT DISCREPANCY =           0.12     PERCENT DISCREPANCY =           0.18






         TIME SUMMARY AT END OF TIME STEP   10 IN STRESS PERIOD   65
                    SECONDS     MINUTES      HOURS       DAYS        YEARS
                    -----------------------------------------------------------
   TIME STEP LENGTH 2.62656E+05  4377.6      72.960      3.0400     8.32307E-03
 STRESS PERIOD TIME 2.62656E+06  43776.      729.60      30.400     8.32307E-02
         TOTAL TIME 1.70727E+08 2.84545E+06  47424.      1976.0      5.4100    
1
1
                            STRESS PERIOD NO.   66, LENGTH =   30.40000    
                            -----------------------------------------------

                              NUMBER OF TIME STEPS =    10

                               MULTIPLIER FOR DELT =     1.000

                            INITIAL TIME STEP SIZE =   3.040000    

 WELL NO.  LAYER   ROW   COL   STRESS RATE         
 --------------------------------------------------
      1      1     69    225      -5616.    
      2      1     71    224       0.000    
      3      1     74    220       0.000    
      4      1     73    220       0.000    
      5      1     71    223       0.000    
      6      1     71    223       0.000    
      7      1     72    223       0.000    
      8      1     92    173       0.000    
      9      1     94    174       0.000    
     10      1     93    175       0.000    
     11      1    203    328       0.000    
     12      1    438    460      -2744.    
     13      1    436    461      -2744.    
     14      1    410    454      -2744.    
     15      1    433    460      -2744.    
     16      1    431    462      -2744.    
     17      1    417    459      -2744.    
     18      1    418    458      -2744.    
     19      1    414    455      -2744.    
     20      1    443    464      -2744.    
     21      1    379    425      -2744.    
     22      1    362    405      -2744.    
     23      1    361    405      -2744.    
     24      1    362    406      -2744.    
     25      1    363    408      -2744.    
     26      1    364    410      -2744.    
     27      1    369    418      -2744.    
     28      1    367    417      -2744.    
     29      1    365    415      -2744.    
     30      1    402    447      -2744.    
     31      1    400    446      -2744.    
     32      1    392    444      -2744.    
     33      1    391    441      -2744.    
     34      1    403    448      -2744.    
     35      1    405    447      -2744.    
     36      1    362    410      -2744.    
     37      1    362    411      -2744.    
     38      1    363    412      -2744.    
     39      1    375    421      -2744.    
     40      1    383    430      -2744.    
     41      1    397    445      -2744.    
     42      1    360    403      -2744.    
     43      1    350    401      -2744.    
     44      1    346    393      -3499.    
     45      1    333    387      -3499.    
     46      1    328    384      -3499.    
     47      1    326    383      -3499.    
     48      1    323    378      -3499.    
     49      1    321    378      -3499.    
     50      1    322    376      -3499.    
     51      1    316    374      -3499.    
     52      1    311    371      -3499.    
     53      1    307    369      -3499.    
     54      1    305    368      -3499.    
     55      1    303    368      -3499.    
     56      1    300    369      -3499.    
     57      1    293    364      -3499.    
     58      1    292    362      -3499.    
     59      1    278    350      -3499.    
     60      1    274    351      -3499.    
     61      1    273    350      -3499.    
     62      1    271    350      -3499.    
     63      1    267    348      -3499.    
     64      1    263    348      -3499.    
     65      1    263    348      -3499.    
     66      1    248    347      -3499.    
     67      1    243    342      -3499.    
     68      1    242    339      -3499.    
     69      1    238    341      -3499.    
     70      1    233    340      -3499.    
     71      1    232    340      -3499.    
     72      1    229    341      -3499.    
     73      1    227    341      -3499.    
     74      1    219    342      -3499.    
     75      1    219    336      -3499.    
     76      1    199    329      -3499.    
     77      1    191    332      -4793.    
     78      1    190    332      -4793.    
     79      1    130    310      -4793.    
     80      1    123    305      -4793.    
     81      1    104    289      -4793.    
     82      1     96    287      -4290.    
     83      1     95    284      -4290.    
     84      1     95    280      -4290.    
     85      1     93    276      -4290.    
     86      1     94    275      -4290.    
     87      1     90    277      -4290.    
     88      1     90    273      -4290.    
     89      1     86    271      -4290.    
     90      1     85    270      -4290.    
     91      1     84    265      -4290.    
     92      1     85    265      -4290.    
     93      1     84    264      -4290.    
     94      1     79    263      -4290.    
     95      1     79    263      -4290.    
     96      1     76    262      -4290.    
     97      1     73    257      -4290.    
     98      1     74    255      -4290.    
     99      1     71    255      -4290.    
    100      1     66    253      -4290.    
    101      1     68    252      -4290.    
    102      1     69    250      -4290.    
    103      1     65    248      -4290.    
    104      1     68    248      -4290.    
    105      1     69    247      -4290.    
    106      1     73    247      -4290.    
    107      1     64    246      -4290.    
    108      1     69    245      -4290.    
    109      1     72    245      -4290.    
    110      1     69    241      -4290.    
    111      1     73    238      -4290.    
    112      1     70    238      -4290.    
    113      1     76    263      -4290.    
    114      1     66    232      -2310.    
    115      1     69    229      -2310.    
    116      1     71    228      -2310.    
    117      1     69    227      -2310.    
    118      1     72    219      -2310.    
    119      1     72    218      -2310.    
    120      1     72    218      -2310.    
    121      1     73    217      -2310.    
    122      1     77    219      -2310.    
    123      1     78    219      -2310.    
    124      1     83    213      -2310.    
    125      1     77    213      -2310.    
    126      1     81    211      -2310.    
    127      1     81    210      -2310.    
    128      1     81    210      -2310.    
    129      1     82    208      -2310.    
    130      1     80    205      -2310.    
    131      1     86    202      -2310.    
    132      1     84    200      -2310.    
    133      1     89    200      -2310.    
    134      1     89    199      -2310.    
    135      1     88    199      -2310.    
    136      1     86    199      -2310.    
    137      1     85    199      -2310.    
    138      1     82    197      -2310.    
    139      1     86    197      -2310.    
    140      1     88    198      -2310.    
    141      1     90    192      -2310.    
    142      1     89    191      -2310.    
    143      1     84    192      -2310.    
    144      1     91    189      -2310.    
    145      1     92    185      -2310.    
    146      1     87    183      -2310.    
    147      1     92    182      -2310.    
    148      1     90    182      -2310.    
    149      1     88    179      -2310.    
    150      1     89    176      -2310.    
    151      1     92    172      -2310.    
    152      1     93    164      -2310.    
    153      1     94    162      -2310.    
    154      1    103    156      -2310.    
    155      1    103    156      -2310.    
    156      1     96    154      -2310.    
    157      1     97    153      -2310.    
    158      1    122    139      -2310.    
    159      1     92     77      -2310.    
    160      1     94     77      -2310.    
    161      1     94     73      -2310.    
    162      1     97    152      -2310.    
    163      1    118    337      -666.7    
    164      1    133    319      -2678.    
    165      1    131    320      -3951.    
    166      1    133    321      -2956.    
    167      1    161    329      -2141.    
    168      1    178    330      -551.0    
    169      1    163    330      -1122.    
    170      1    131    320      -2473.    
    171      1    129    315      -3937.    
    172      1    162    329      -1959.    
    173      1    131    311      -826.1    
    174      1    221    340      -1994.    
    175      1    220    340      -1034.    
    176      1    221    340      -667.7    
    177      1    137    322      -2082.    
    178      1    137    321      -1407.    
    179      1    185    329      -2012.    
    180      1    183    329      -1473.    
    181      1    175    329      -585.3    
    182      1     79    243      -1490.    
    183      1     77    245      -2414.    
    184      1    199    329      -1617.    
    185      1    198    330      -2514.    
    186      1    140    328      -972.1    
    187      1    143    327      -863.6    
    188      1    139    327      -1331.    

    188 WELLS

 REUSING NON-PARAMETER DRAINS FROM LAST STRESS PERIOD

   1061 DRAINS

 REUSING SURF FROM LAST STRESS PERIOD

 REUSING EVTR FROM LAST STRESS PERIOD

 REUSING EXDP FROM LAST STRESS PERIOD



                           RECHARGE
 READING ON UNIT   19 WITH FORMAT: (510E15.6)          

 SOLVING FOR HEAD 
                                                   Max.-Head-Change                        Max.-Flux-Residual
  Residual-Control   Outer-Iter.   Inner-Iter.     Column Row Layer    Max.-Head-Change    Column Row Layer    Max.-Flux-Residual            L2-New               L2-Old           Solver-Max-Delh
          0                 1           3           263   79     1      -0.1952175985E+02     263   79    1      -0.6465229783E+04      0.2916180927E+05      0.3149368129E+03     -0.1952175985E+02
          0                 2           2           263   79     1       0.1477234644E+01     238   70    1       0.7619721976E+03      0.2978093055E+04      0.2916180927E+05      0.1477234644E+01
          0                 3           2           263   79     1       0.7209581474E-01     238   70    1       0.3805836743E+02      0.1484391444E+03      0.2978093055E+04      0.7209581474E-01

    ------------------------------------------------
       NWT REQUIRED            3 OUTER ITERATIONS 
       AND A TOTAL OF          7 INNER ITERATIONS.
    ------------------------------------------------

 NO OUTPUT CONTROL FOR STRESS PERIOD   66   TIME STEP    1

 WELLS WITH REDUCED PUMPING FOR STRESS PERIOD    66 TIME STEP     1
   LAY   ROW   COL         APPL.Q          ACT.Q        GW-HEAD       CELL-BOT
     1    77   213  -0.230952E+04  -0.156641E+04   0.155434E+03   0.148000E+03
     1    92    77  -0.230952E+04  -0.828968E+03  -0.832428E+02  -0.930000E+02
     1    94    77  -0.230952E+04  -0.662683E+03  -0.939978E+02  -0.102000E+03
     1    94    73  -0.230952E+04  -0.807552E+03  -0.659600E+02  -0.740000E+02


 SOLVING FOR HEAD 
                                                   Max.-Head-Change                        Max.-Flux-Residual
  Residual-Control   Outer-Iter.   Inner-Iter.     Column Row Layer    Max.-Head-Change    Column Row Layer    Max.-Flux-Residual            L2-New               L2-Old           Solver-Max-Delh
          0                 1           3           263   79     1      -0.8418336816E+01     263   79    1      -0.2548711950E+04      0.1342897684E+05      0.1484391444E+03     -0.8418336816E+01
          0                 2           3           263   79     1       0.6707009629E+00     273   90    1       0.2524812139E+03      0.1337061005E+04      0.1342897684E+05      0.6707009629E+00
          0                 3           2           263   79     1       0.3303273664E-01     273   90    1       0.1261632246E+02      0.6677592618E+02      0.1337061005E+04      0.3303273664E-01

    ------------------------------------------------
       NWT REQUIRED            3 OUTER ITERATIONS 
       AND A TOTAL OF          8 INNER ITERATIONS.
    ------------------------------------------------

 NO OUTPUT CONTROL FOR STRESS PERIOD   66   TIME STEP    2

 WELLS WITH REDUCED PUMPING FOR STRESS PERIOD    66 TIME STEP     2
   LAY   ROW   COL         APPL.Q          ACT.Q        GW-HEAD       CELL-BOT
     1    77   213  -0.230952E+04  -0.148984E+04   0.155156E+03   0.148000E+03
     1    92    77  -0.230952E+04  -0.628341E+03  -0.847356E+02  -0.930000E+02
     1    94    77  -0.230952E+04  -0.648294E+03  -0.941009E+02  -0.102000E+03
     1    94    73  -0.230952E+04  -0.786371E+03  -0.660890E+02  -0.740000E+02


 SOLVING FOR HEAD 
                                                   Max.-Head-Change                        Max.-Flux-Residual
  Residual-Control   Outer-Iter.   Inner-Iter.     Column Row Layer    Max.-Head-Change    Column Row Layer    Max.-Flux-Residual            L2-New               L2-Old           Solver-Max-Delh
          0                 1           3           263   79     1      -0.3992073158E+01     374  316    1      -0.2092888646E+04      0.1048134266E+05      0.6677592618E+02     -0.3992073158E+01
          0                 2           3           263   79     1       0.3288739684E+00     374  316    1       0.2091469492E+03      0.1044671136E+04      0.1048134266E+05      0.3288739684E+00
          0                 3           2           263   79     1       0.1629649354E-01     374  316    1       0.1045628431E+02      0.5221635721E+02      0.1044671136E+04      0.1629649354E-01

    ------------------------------------------------
       NWT REQUIRED            3 OUTER ITERATIONS 
       AND A TOTAL OF          8 INNER ITERATIONS.
    ------------------------------------------------

 NO OUTPUT CONTROL FOR STRESS PERIOD   66   TIME STEP    3

 WELLS WITH REDUCED PUMPING FOR STRESS PERIOD    66 TIME STEP     3
   LAY   ROW   COL         APPL.Q          ACT.Q        GW-HEAD       CELL-BOT
     1    77   213  -0.230952E+04  -0.141965E+04   0.154906E+03   0.148000E+03
     1    92    77  -0.230952E+04  -0.532770E+03  -0.854911E+02  -0.930000E+02
     1    94    77  -0.230952E+04  -0.634712E+03  -0.941987E+02  -0.102000E+03
     1    94    73  -0.230952E+04  -0.766552E+03  -0.662105E+02  -0.740000E+02


 SOLVING FOR HEAD 
                                                   Max.-Head-Change                        Max.-Flux-Residual
  Residual-Control   Outer-Iter.   Inner-Iter.     Column Row Layer    Max.-Head-Change    Column Row Layer    Max.-Flux-Residual            L2-New               L2-Old           Solver-Max-Delh
          0                 1           3           263   79     1      -0.2125680480E+01     374  316    1      -0.1879923865E+04      0.9110337802E+04      0.5221635721E+02     -0.2125680480E+01
          0                 2           2           263   79     1       0.1785322867E+00     374  316    1       0.1878575892E+03      0.9093454382E+03      0.9110337802E+04      0.1785322867E+00
          0                 3           2           457  453     1       0.1097060466E-01     374  316    1       0.9391869527E+01      0.4545754726E+02      0.9093454382E+03      0.1097060466E-01

    ------------------------------------------------
       NWT REQUIRED            3 OUTER ITERATIONS 
       AND A TOTAL OF          7 INNER ITERATIONS.
    ------------------------------------------------

 NO OUTPUT CONTROL FOR STRESS PERIOD   66   TIME STEP    4

 WELLS WITH REDUCED PUMPING FOR STRESS PERIOD    66 TIME STEP     4
   LAY   ROW   COL         APPL.Q          ACT.Q        GW-HEAD       CELL-BOT
     1    77   213  -0.230952E+04  -0.135575E+04   0.154681E+03   0.148000E+03
     1    92    77  -0.230952E+04  -0.485458E+03  -0.858805E+02  -0.930000E+02
     1    94    77  -0.230952E+04  -0.621886E+03  -0.942916E+02  -0.102000E+03
     1    94    73  -0.230952E+04  -0.748003E+03  -0.663248E+02  -0.740000E+02


 SOLVING FOR HEAD 
                                                   Max.-Head-Change                        Max.-Flux-Residual
  Residual-Control   Outer-Iter.   Inner-Iter.     Column Row Layer    Max.-Head-Change    Column Row Layer    Max.-Flux-Residual            L2-New               L2-Old           Solver-Max-Delh
          0                 1           3           263   79     1      -0.1283981863E+01     374  316    1      -0.1693034025E+04      0.8293884303E+04      0.4545754726E+02     -0.1283981863E+01
          0                 2           2           263   79     1       0.1090105048E+00     374  316    1       0.1691788675E+03      0.8356931842E+03      0.8293884303E+04      0.1090105048E+00
          0                 3           2           457  453     1       0.1088706051E-01     374  316    1       0.8458010483E+01      0.4177928188E+02      0.8356931842E+03      0.1088706051E-01

    ------------------------------------------------
       NWT REQUIRED            3 OUTER ITERATIONS 
       AND A TOTAL OF          7 INNER ITERATIONS.
    ------------------------------------------------

 NO OUTPUT CONTROL FOR STRESS PERIOD   66   TIME STEP    5

 WELLS WITH REDUCED PUMPING FOR STRESS PERIOD    66 TIME STEP     5
   LAY   ROW   COL         APPL.Q          ACT.Q        GW-HEAD       CELL-BOT
     1    77   213  -0.230952E+04  -0.129785E+04   0.154479E+03   0.148000E+03
     1    92    77  -0.230952E+04  -0.461399E+03  -0.860832E+02  -0.930000E+02
     1    94    77  -0.230952E+04  -0.609769E+03  -0.943799E+02  -0.102000E+03
     1    94    73  -0.230952E+04  -0.730635E+03  -0.664324E+02  -0.740000E+02


 SOLVING FOR HEAD 
                                                   Max.-Head-Change                        Max.-Flux-Residual
  Residual-Control   Outer-Iter.   Inner-Iter.     Column Row Layer    Max.-Head-Change    Column Row Layer    Max.-Flux-Residual            L2-New               L2-Old           Solver-Max-Delh
          0                 1           3           264   78     1      -0.9647755191E+00     378  321    1      -0.1536475556E+04      0.7744187772E+04      0.4177928188E+02     -0.9647755191E+00
          0                 2           2           264   78     1       0.8203992786E-01     378  321    1       0.1535273551E+03      0.7779765864E+03      0.7744187772E+04      0.8203992786E-01

    ------------------------------------------------
       NWT REQUIRED            2 OUTER ITERATIONS 
       AND A TOTAL OF          5 INNER ITERATIONS.
    ------------------------------------------------

 NO OUTPUT CONTROL FOR STRESS PERIOD   66   TIME STEP    6

 WELLS WITH REDUCED PUMPING FOR STRESS PERIOD    66 TIME STEP     6
   LAY   ROW   COL         APPL.Q          ACT.Q        GW-HEAD       CELL-BOT
     1    77   213  -0.230952E+04  -0.124533E+04   0.154297E+03   0.148000E+03
     1    92    77  -0.230952E+04  -0.448917E+03  -0.861898E+02  -0.930000E+02
     1    94    77  -0.230952E+04  -0.598263E+03  -0.944642E+02  -0.102000E+03
     1    94    73  -0.230952E+04  -0.714289E+03  -0.665343E+02  -0.740000E+02


 SOLVING FOR HEAD 
                                                   Max.-Head-Change                        Max.-Flux-Residual
  Residual-Control   Outer-Iter.   Inner-Iter.     Column Row Layer    Max.-Head-Change    Column Row Layer    Max.-Flux-Residual            L2-New               L2-Old           Solver-Max-Delh
          0                 1           3           264   78     1      -0.8270574668E+00     378  321    1      -0.1409923313E+04      0.7345415950E+04      0.3889495328E+02     -0.8270574668E+00
          0                 2           2           264   78     1       0.7035988587E-01     378  321    1       0.1408787597E+03      0.7368494445E+03      0.7345415950E+04      0.7035988587E-01

    ------------------------------------------------
       NWT REQUIRED            2 OUTER ITERATIONS 
       AND A TOTAL OF          5 INNER ITERATIONS.
    ------------------------------------------------

 NO OUTPUT CONTROL FOR STRESS PERIOD   66   TIME STEP    7

 WELLS WITH REDUCED PUMPING FOR STRESS PERIOD    66 TIME STEP     7
   LAY   ROW   COL         APPL.Q          ACT.Q        GW-HEAD       CELL-BOT
     1    77   213  -0.230952E+04  -0.119806E+04   0.154133E+03   0.148000E+03
     1    92    77  -0.230952E+04  -0.442450E+03  -0.862455E+02  -0.930000E+02
     1    94    77  -0.230952E+04  -0.587387E+03  -0.945443E+02  -0.102000E+03
     1    94    73  -0.230952E+04  -0.698977E+03  -0.666302E+02  -0.740000E+02


 SOLVING FOR HEAD 
                                                   Max.-Head-Change                        Max.-Flux-Residual
  Residual-Control   Outer-Iter.   Inner-Iter.     Column Row Layer    Max.-Head-Change    Column Row Layer    Max.-Flux-Residual            L2-New               L2-Old           Solver-Max-Delh
          0                 1           3           264   78     1      -0.7107283328E+00     378  321    1      -0.1297902982E+04      0.7045009094E+04      0.3683977558E+02     -0.7107283328E+00
          0                 2           2           264   78     1       0.6054884357E-01     378  321    1       0.1296844878E+03      0.7099049561E+03      0.7045009094E+04      0.6054884357E-01

    ------------------------------------------------
       NWT REQUIRED            2 OUTER ITERATIONS 
       AND A TOTAL OF          5 INNER ITERATIONS.
    ------------------------------------------------

 NO OUTPUT CONTROL FOR STRESS PERIOD   66   TIME STEP    8

 WELLS WITH REDUCED PUMPING FOR STRESS PERIOD    66 TIME STEP     8
   LAY   ROW   COL         APPL.Q          ACT.Q        GW-HEAD       CELL-BOT
     1    77   213  -0.230952E+04  -0.115559E+04   0.153987E+03   0.148000E+03
     1    92    77  -0.230952E+04  -0.439096E+03  -0.862744E+02  -0.930000E+02
     1    94    77  -0.230952E+04  -0.577102E+03  -0.946205E+02  -0.102000E+03
     1    94    73  -0.230952E+04  -0.684628E+03  -0.667206E+02  -0.740000E+02


 SOLVING FOR HEAD 
                                                   Max.-Head-Change                        Max.-Flux-Residual
  Residual-Control   Outer-Iter.   Inner-Iter.     Column Row Layer    Max.-Head-Change    Column Row Layer    Max.-Flux-Residual            L2-New               L2-Old           Solver-Max-Delh
          0                 1           3           264   78     1      -0.6153255878E+00     378  321    1      -0.1198459061E+04      0.6811421279E+04      0.3551417158E+02     -0.6153255878E+00
          0                 2           2           264   78     1       0.5250857927E-01     378  321    1       0.1197482350E+03      0.6813241569E+03      0.6811421279E+04      0.5250857927E-01

    ------------------------------------------------
       NWT REQUIRED            2 OUTER ITERATIONS 
       AND A TOTAL OF          5 INNER ITERATIONS.
    ------------------------------------------------

 NO OUTPUT CONTROL FOR STRESS PERIOD   66   TIME STEP    9

 WELLS WITH REDUCED PUMPING FOR STRESS PERIOD    66 TIME STEP     9
   LAY   ROW   COL         APPL.Q          ACT.Q        GW-HEAD       CELL-BOT
     1    77   213  -0.230952E+04  -0.111748E+04   0.153855E+03   0.148000E+03
     1    92    77  -0.230952E+04  -0.437363E+03  -0.862894E+02  -0.930000E+02
     1    94    77  -0.230952E+04  -0.567373E+03  -0.946929E+02  -0.102000E+03
     1    94    73  -0.230952E+04  -0.671174E+03  -0.668058E+02  -0.740000E+02


 SOLVING FOR HEAD 
                                                   Max.-Head-Change                        Max.-Flux-Residual
  Residual-Control   Outer-Iter.   Inner-Iter.     Column Row Layer    Max.-Head-Change    Column Row Layer    Max.-Flux-Residual            L2-New               L2-Old           Solver-Max-Delh
          0                 1           3           264   78     1      -0.5379287329E+00     378  321    1      -0.1109939793E+04      0.6625621477E+04      0.3406480568E+02     -0.5379287329E+00
          0                 2           2           264   78     1       0.4597761387E-01     378  321    1       0.1109043736E+03      0.6624110689E+03      0.6625621477E+04      0.4597761387E-01

    ------------------------------------------------
       NWT REQUIRED            2 OUTER ITERATIONS 
       AND A TOTAL OF          5 INNER ITERATIONS.
    ------------------------------------------------

 OUTPUT CONTROL FOR STRESS PERIOD   66   TIME STEP   10
    SAVE HEAD FOR ALL LAYERS

 WELLS WITH REDUCED PUMPING FOR STRESS PERIOD    66 TIME STEP    10
   LAY   ROW   COL         APPL.Q          ACT.Q        GW-HEAD       CELL-BOT
     1    77   213  -0.230952E+04  -0.108331E+04   0.153737E+03   0.148000E+03
     1    92    77  -0.230952E+04  -0.436479E+03  -0.862971E+02  -0.930000E+02
     1    94    77  -0.230952E+04  -0.558165E+03  -0.947618E+02  -0.102000E+03
     1    94    73  -0.230952E+04  -0.658554E+03  -0.668861E+02  -0.740000E+02


 HEAD WILL BE SAVED ON UNIT   51 AT END OF TIME STEP   10, STRESS PERIOD   66
1
  VOLUMETRIC BUDGET FOR ENTIRE MODEL AT END OF TIME STEP   10, STRESS PERIOD  66
  ------------------------------------------------------------------------------

     CUMULATIVE VOLUMES      L**3       RATES FOR THIS TIME STEP      L**3/T
     ------------------                 ------------------------

           IN:                                      IN:
           ---                                      ---
             STORAGE =   648628160.0000               STORAGE =      332952.6250
       CONSTANT HEAD =   102135904.0000         CONSTANT HEAD =       52132.0625
               WELLS =           0.0000                 WELLS =           0.0000
              DRAINS =           0.0000                DRAINS =           0.0000
                  ET =           0.0000                    ET =           0.0000
            RECHARGE =   373763968.0000              RECHARGE =      210290.2031

            TOTAL IN =  1124528000.0000              TOTAL IN =      595374.8750

          OUT:                                     OUT:
          ----                                     ----
             STORAGE =   205685488.0000               STORAGE =       13804.7773
       CONSTANT HEAD =           0.0000         CONSTANT HEAD =           0.0000
               WELLS =   600394944.0000                 WELLS =      456581.0625
              DRAINS =   224907872.0000                DRAINS =       88484.4062
                  ET =    91946288.0000                    ET =       34912.5781
            RECHARGE =      252575.6250              RECHARGE =           0.0000

           TOTAL OUT =  1123187072.0000             TOTAL OUT =      593782.8125

            IN - OUT =     1340928.0000              IN - OUT =        1592.0625

 PERCENT DISCREPANCY =           0.12     PERCENT DISCREPANCY =           0.27






         TIME SUMMARY AT END OF TIME STEP   10 IN STRESS PERIOD   66
                    SECONDS     MINUTES      HOURS       DAYS        YEARS
                    -----------------------------------------------------------
   TIME STEP LENGTH 2.62656E+05  4377.6      72.960      3.0400     8.32307E-03
 STRESS PERIOD TIME 2.62656E+06  43776.      729.60      30.400     8.32307E-02
         TOTAL TIME 1.73354E+08 2.88923E+06  48154.      2006.4      5.4932    
1
1
                            STRESS PERIOD NO.   67, LENGTH =   30.40000    
                            -----------------------------------------------

                              NUMBER OF TIME STEPS =    10

                               MULTIPLIER FOR DELT =     1.000

                            INITIAL TIME STEP SIZE =   3.040000    

 WELL NO.  LAYER   ROW   COL   STRESS RATE         
 --------------------------------------------------
      1      1     69    225      -5702.    
      2      1     71    224       0.000    
      3      1     74    220       0.000    
      4      1     73    220       0.000    
      5      1     71    223       0.000    
      6      1     71    223       0.000    
      7      1     72    223       0.000    
      8      1     92    173       0.000    
      9      1     94    174       0.000    
     10      1     93    175       0.000    
     11      1    203    328       0.000    
     12      1    438    460      -2143.    
     13      1    436    461      -2143.    
     14      1    410    454      -2143.    
     15      1    433    460      -2143.    
     16      1    431    462      -2143.    
     17      1    417    459      -2143.    
     18      1    418    458      -2143.    
     19      1    414    455      -2143.    
     20      1    443    464      -2143.    
     21      1    379    425      -2143.    
     22      1    362    405      -2143.    
     23      1    361    405      -2143.    
     24      1    362    406      -2143.    
     25      1    363    408      -2143.    
     26      1    364    410      -2143.    
     27      1    369    418      -2143.    
     28      1    367    417      -2143.    
     29      1    365    415      -2143.    
     30      1    402    447      -2143.    
     31      1    400    446      -2143.    
     32      1    392    444      -2143.    
     33      1    391    441      -2143.    
     34      1    403    448      -2143.    
     35      1    405    447      -2143.    
     36      1    362    410      -2143.    
     37      1    362    411      -2143.    
     38      1    363    412      -2143.    
     39      1    375    421      -2143.    
     40      1    383    430      -2143.    
     41      1    397    445      -2143.    
     42      1    360    403      -2143.    
     43      1    350    401      -2143.    
     44      1    346    393      -2599.    
     45      1    333    387      -2599.    
     46      1    328    384      -2599.    
     47      1    326    383      -2599.    
     48      1    323    378      -2599.    
     49      1    321    378      -2599.    
     50      1    322    376      -2599.    
     51      1    316    374      -2599.    
     52      1    311    371      -2599.    
     53      1    307    369      -2599.    
     54      1    305    368      -2599.    
     55      1    303    368      -2599.    
     56      1    300    369      -2599.    
     57      1    293    364      -2599.    
     58      1    292    362      -2599.    
     59      1    278    350      -2599.    
     60      1    274    351      -2599.    
     61      1    273    350      -2599.    
     62      1    271    350      -2599.    
     63      1    267    348      -2599.    
     64      1    263    348      -2599.    
     65      1    263    348      -2599.    
     66      1    248    347      -2599.    
     67      1    243    342      -2599.    
     68      1    242    339      -2599.    
     69      1    238    341      -2599.    
     70      1    233    340      -2599.    
     71      1    232    340      -2599.    
     72      1    229    341      -2599.    
     73      1    227    341      -2599.    
     74      1    219    342      -2599.    
     75      1    219    336      -2599.    
     76      1    199    329      -2599.    
     77      1    191    332      -3842.    
     78      1    190    332      -3842.    
     79      1    130    310      -3842.    
     80      1    123    305      -3842.    
     81      1    104    289      -3842.    
     82      1     96    287      -3788.    
     83      1     95    284      -3788.    
     84      1     95    280      -3788.    
     85      1     93    276      -3788.    
     86      1     94    275      -3788.    
     87      1     90    277      -3788.    
     88      1     90    273      -3788.    
     89      1     86    271      -3788.    
     90      1     85    270      -3788.    
     91      1     84    265      -3788.    
     92      1     85    265      -3788.    
     93      1     84    264      -3788.    
     94      1     79    263      -3788.    
     95      1     79    263      -3788.    
     96      1     76    262      -3788.    
     97      1     73    257      -3788.    
     98      1     74    255      -3788.    
     99      1     71    255      -3788.    
    100      1     66    253      -3788.    
    101      1     68    252      -3788.    
    102      1     69    250      -3788.    
    103      1     65    248      -3788.    
    104      1     68    248      -3788.    
    105      1     69    247      -3788.    
    106      1     73    247      -3788.    
    107      1     64    246      -3788.    
    108      1     69    245      -3788.    
    109      1     72    245      -3788.    
    110      1     69    241      -3788.    
    111      1     73    238      -3788.    
    112      1     70    238      -3788.    
    113      1     76    263      -3788.    
    114      1     66    232      -2343.    
    115      1     69    229      -2343.    
    116      1     71    228      -2343.    
    117      1     69    227      -2343.    
    118      1     72    219      -2343.    
    119      1     72    218      -2343.    
    120      1     72    218      -2343.    
    121      1     73    217      -2343.    
    122      1     77    219      -2343.    
    123      1     78    219      -2343.    
    124      1     83    213      -2343.    
    125      1     77    213      -2343.    
    126      1     81    211      -2343.    
    127      1     81    210      -2343.    
    128      1     81    210      -2343.    
    129      1     82    208      -2343.    
    130      1     80    205      -2343.    
    131      1     86    202      -2343.    
    132      1     84    200      -2343.    
    133      1     89    200      -2343.    
    134      1     89    199      -2343.    
    135      1     88    199      -2343.    
    136      1     86    199      -2343.    
    137      1     85    199      -2343.    
    138      1     82    197      -2343.    
    139      1     86    197      -2343.    
    140      1     88    198      -2343.    
    141      1     90    192      -2343.    
    142      1     89    191      -2343.    
    143      1     84    192      -2343.    
    144      1     91    189      -2343.    
    145      1     92    185      -2343.    
    146      1     87    183      -2343.    
    147      1     92    182      -2343.    
    148      1     90    182      -2343.    
    149      1     88    179      -2343.    
    150      1     89    176      -2343.    
    151      1     92    172      -2343.    
    152      1     93    164      -2343.    
    153      1     94    162      -2343.    
    154      1    103    156      -2343.    
    155      1    103    156      -2343.    
    156      1     96    154      -2343.    
    157      1     97    153      -2343.    
    158      1    122    139      -2343.    
    159      1     92     77      -2343.    
    160      1     94     77      -2343.    
    161      1     94     73      -2343.    
    162      1     97    152      -2343.    
    163      1    118    337      -666.7    
    164      1    133    319      -2678.    
    165      1    131    320      -3951.    
    166      1    133    321      -2956.    
    167      1    161    329      -2141.    
    168      1    178    330      -551.0    
    169      1    163    330      -1122.    
    170      1    131    320      -2473.    
    171      1    129    315      -3937.    
    172      1    162    329      -1959.    
    173      1    131    311      -826.1    
    174      1    221    340      -1994.    
    175      1    220    340      -1034.    
    176      1    221    340      -667.7    
    177      1    137    322      -2082.    
    178      1    137    321      -1407.    
    179      1    185    329      -2012.    
    180      1    183    329      -1473.    
    181      1    175    329      -585.3    
    182      1     79    243      -1490.    
    183      1     77    245      -2414.    
    184      1    199    329      -1617.    
    185      1    198    330      -2514.    
    186      1    140    328      -972.1    
    187      1    143    327      -863.6    
    188      1    139    327      -1331.    

    188 WELLS

 REUSING NON-PARAMETER DRAINS FROM LAST STRESS PERIOD

   1061 DRAINS

 REUSING SURF FROM LAST STRESS PERIOD

 REUSING EVTR FROM LAST STRESS PERIOD

 REUSING EXDP FROM LAST STRESS PERIOD



                           RECHARGE
 READING ON UNIT   19 WITH FORMAT: (510E15.6)          

 SOLVING FOR HEAD 
                                                   Max.-Head-Change                        Max.-Flux-Residual
  Residual-Control   Outer-Iter.   Inner-Iter.     Column Row Layer    Max.-Head-Change    Column Row Layer    Max.-Flux-Residual            L2-New               L2-Old           Solver-Max-Delh
          0                 1           3           263   79     1       0.2853229183E+01     348  263    1       0.1705446114E+04      0.9486353012E+04      0.3311937532E+02      0.2853229183E+01
          0                 2           2           263   79     1      -0.2475569007E+00     348  263    1      -0.1711784877E+03      0.9508679158E+03      0.9486353012E+04     -0.2475569007E+00
          0                 3           2           263   79     1      -0.1238974996E-01     348  263    1      -0.8559258906E+01      0.4754212231E+02      0.9508679158E+03     -0.1238974996E-01

    ------------------------------------------------
       NWT REQUIRED            3 OUTER ITERATIONS 
       AND A TOTAL OF          7 INNER ITERATIONS.
    ------------------------------------------------

 NO OUTPUT CONTROL FOR STRESS PERIOD   67   TIME STEP    1

 WELLS WITH REDUCED PUMPING FOR STRESS PERIOD    67 TIME STEP     1
   LAY   ROW   COL         APPL.Q          ACT.Q        GW-HEAD       CELL-BOT
     1    77   213  -0.234339E+04  -0.106676E+04   0.153626E+03   0.148000E+03
     1    92    77  -0.234339E+04  -0.439691E+03  -0.863243E+02  -0.930000E+02
     1    94    77  -0.234339E+04  -0.557176E+03  -0.948298E+02  -0.102000E+03
     1    94    73  -0.234339E+04  -0.655741E+03  -0.669647E+02  -0.740000E+02


 SOLVING FOR HEAD 
                                                   Max.-Head-Change                        Max.-Flux-Residual
  Residual-Control   Outer-Iter.   Inner-Iter.     Column Row Layer    Max.-Head-Change    Column Row Layer    Max.-Flux-Residual            L2-New               L2-Old           Solver-Max-Delh
          0                 1           3           263   79     1       0.1070546783E+01     213   83    1      -0.8908734639E+03      0.6795579761E+04      0.4754212231E+02      0.1070546783E+01
          0                 2           2           263   79     1      -0.9233858478E-01     213   83    1       0.8906314717E+02      0.6797802496E+03      0.6795579761E+04     -0.9233858478E-01

    ------------------------------------------------
       NWT REQUIRED            2 OUTER ITERATIONS 
       AND A TOTAL OF          5 INNER ITERATIONS.
    ------------------------------------------------

 NO OUTPUT CONTROL FOR STRESS PERIOD   67   TIME STEP    2

 WELLS WITH REDUCED PUMPING FOR STRESS PERIOD    67 TIME STEP     2
   LAY   ROW   COL         APPL.Q          ACT.Q        GW-HEAD       CELL-BOT
     1    77   213  -0.234339E+04  -0.103759E+04   0.153526E+03   0.148000E+03
     1    92    77  -0.234339E+04  -0.438039E+03  -0.863385E+02  -0.930000E+02
     1    94    77  -0.234339E+04  -0.548452E+03  -0.948948E+02  -0.102000E+03
     1    94    73  -0.234339E+04  -0.643987E+03  -0.670392E+02  -0.740000E+02


 SOLVING FOR HEAD 
                                                   Max.-Head-Change                        Max.-Flux-Residual
  Residual-Control   Outer-Iter.   Inner-Iter.     Column Row Layer    Max.-Head-Change    Column Row Layer    Max.-Flux-Residual            L2-New               L2-Old           Solver-Max-Delh
          0                 1           3           342  219     1       0.4164789952E+00     213   83    1      -0.8775143534E+03      0.6258054844E+04      0.3399197718E+02      0.4164789952E+00
          0                 2           2           204   74     1      -0.6477078660E-01     213   83    1       0.8772773750E+02      0.6270382967E+03      0.6258054844E+04     -0.6477078660E-01

    ------------------------------------------------
       NWT REQUIRED            2 OUTER ITERATIONS 
       AND A TOTAL OF          5 INNER ITERATIONS.
    ------------------------------------------------

 NO OUTPUT CONTROL FOR STRESS PERIOD   67   TIME STEP    3

 WELLS WITH REDUCED PUMPING FOR STRESS PERIOD    67 TIME STEP     3
   LAY   ROW   COL         APPL.Q          ACT.Q        GW-HEAD       CELL-BOT
     1    77   213  -0.234339E+04  -0.101149E+04   0.153437E+03   0.148000E+03
     1    92    77  -0.234339E+04  -0.437202E+03  -0.863457E+02  -0.930000E+02
     1    94    77  -0.234339E+04  -0.540194E+03  -0.949566E+02  -0.102000E+03
     1    94    73  -0.234339E+04  -0.632959E+03  -0.671095E+02  -0.740000E+02


 SOLVING FOR HEAD 
                                                   Max.-Head-Change                        Max.-Flux-Residual
  Residual-Control   Outer-Iter.   Inner-Iter.     Column Row Layer    Max.-Head-Change    Column Row Layer    Max.-Flux-Residual            L2-New               L2-Old           Solver-Max-Delh
          0                 1           3           213   83     1      -0.3550031843E+00     213   83    1      -0.8644444141E+03      0.5997143102E+04      0.3135293433E+02     -0.3550031843E+00
          0                 2           2           213   83     1       0.3065265452E-01     213   83    1       0.8642123492E+02      0.5997628868E+03      0.5997143102E+04      0.3065265452E-01

    ------------------------------------------------
       NWT REQUIRED            2 OUTER ITERATIONS 
       AND A TOTAL OF          5 INNER ITERATIONS.
    ------------------------------------------------

 NO OUTPUT CONTROL FOR STRESS PERIOD   67   TIME STEP    4

 WELLS WITH REDUCED PUMPING FOR STRESS PERIOD    67 TIME STEP     4
   LAY   ROW   COL         APPL.Q          ACT.Q        GW-HEAD       CELL-BOT
     1    77   213  -0.234339E+04  -0.988121E+03   0.153356E+03   0.148000E+03
     1    92    77  -0.234339E+04  -0.436789E+03  -0.863492E+02  -0.930000E+02
     1    94    77  -0.234339E+04  -0.532373E+03  -0.950154E+02  -0.102000E+03
     1    94    73  -0.234339E+04  -0.622607E+03  -0.671757E+02  -0.740000E+02


 SOLVING FOR HEAD 
                                                   Max.-Head-Change                        Max.-Flux-Residual
  Residual-Control   Outer-Iter.   Inner-Iter.     Column Row Layer    Max.-Head-Change    Column Row Layer    Max.-Flux-Residual            L2-New               L2-Old           Solver-Max-Delh
          0                 1           3           213   83     1      -0.3497928706E+00     213   83    1      -0.8516567129E+03      0.5833219579E+04      0.2998854090E+02     -0.3497928706E+00
          0                 2           2           213   83     1       0.3020281184E-01     213   83    1       0.8514294644E+02      0.5833393472E+03      0.5833219579E+04      0.3020281184E-01

    ------------------------------------------------
       NWT REQUIRED            2 OUTER ITERATIONS 
       AND A TOTAL OF          5 INNER ITERATIONS.
    ------------------------------------------------

 NO OUTPUT CONTROL FOR STRESS PERIOD   67   TIME STEP    5

 WELLS WITH REDUCED PUMPING FOR STRESS PERIOD    67 TIME STEP     5
   LAY   ROW   COL         APPL.Q          ACT.Q        GW-HEAD       CELL-BOT
     1    77   213  -0.234339E+04  -0.967198E+03   0.153284E+03   0.148000E+03
     1    92    77  -0.234339E+04  -0.436597E+03  -0.863509E+02  -0.930000E+02
     1    94    77  -0.234339E+04  -0.524963E+03  -0.950714E+02  -0.102000E+03
     1    94    73  -0.234339E+04  -0.612886E+03  -0.672382E+02  -0.740000E+02


 SOLVING FOR HEAD 
                                                   Max.-Head-Change                        Max.-Flux-Residual
  Residual-Control   Outer-Iter.   Inner-Iter.     Column Row Layer    Max.-Head-Change    Column Row Layer    Max.-Flux-Residual            L2-New               L2-Old           Solver-Max-Delh
          0                 1           3           213   83     1      -0.3446940030E+00     213   83    1      -0.8391439439E+03      0.5715103578E+04      0.2916712750E+02     -0.3446940030E+00
          0                 2           2           213   83     1       0.2976259134E-01     213   83    1       0.8389214172E+02      0.5715512436E+03      0.5715103578E+04      0.2976259134E-01

    ------------------------------------------------
       NWT REQUIRED            2 OUTER ITERATIONS 
       AND A TOTAL OF          5 INNER ITERATIONS.
    ------------------------------------------------

 NO OUTPUT CONTROL FOR STRESS PERIOD   67   TIME STEP    6

 WELLS WITH REDUCED PUMPING FOR STRESS PERIOD    67 TIME STEP     6
   LAY   ROW   COL         APPL.Q          ACT.Q        GW-HEAD       CELL-BOT
     1    77   213  -0.234339E+04  -0.948453E+03   0.153219E+03   0.148000E+03
     1    92    77  -0.234339E+04  -0.436521E+03  -0.863515E+02  -0.930000E+02
     1    94    77  -0.234339E+04  -0.517940E+03  -0.951246E+02  -0.102000E+03
     1    94    73  -0.234339E+04  -0.603753E+03  -0.672972E+02  -0.740000E+02


 SOLVING FOR HEAD 
                                                   Max.-Head-Change                        Max.-Flux-Residual
  Residual-Control   Outer-Iter.   Inner-Iter.     Column Row Layer    Max.-Head-Change    Column Row Layer    Max.-Flux-Residual            L2-New               L2-Old           Solver-Max-Delh
          0                 1           3           213   83     1      -0.3397038643E+00     213   83    1      -0.8268993669E+03      0.5622637294E+04      0.2857760860E+02     -0.3397038643E+00
          0                 2           2           213   83     1       0.2933175835E-01     213   83    1       0.8266814679E+02      0.5622698920E+03      0.5622637294E+04      0.2933175835E-01

    ------------------------------------------------
       NWT REQUIRED            2 OUTER ITERATIONS 
       AND A TOTAL OF          5 INNER ITERATIONS.
    ------------------------------------------------

 NO OUTPUT CONTROL FOR STRESS PERIOD   67   TIME STEP    7

 WELLS WITH REDUCED PUMPING FOR STRESS PERIOD    67 TIME STEP     7
   LAY   ROW   COL         APPL.Q          ACT.Q        GW-HEAD       CELL-BOT
     1    77   213  -0.234339E+04  -0.931651E+03   0.153161E+03   0.148000E+03
     1    92    77  -0.234339E+04  -0.436503E+03  -0.863517E+02  -0.930000E+02
     1    94    77  -0.234339E+04  -0.511281E+03  -0.951754E+02  -0.102000E+03
     1    94    73  -0.234339E+04  -0.595170E+03  -0.673528E+02  -0.740000E+02


 SOLVING FOR HEAD 
                                                   Max.-Head-Change                        Max.-Flux-Residual
  Residual-Control   Outer-Iter.   Inner-Iter.     Column Row Layer    Max.-Head-Change    Column Row Layer    Max.-Flux-Residual            L2-New               L2-Old           Solver-Max-Delh
          0                 1           3           213   83     1      -0.3348196197E+00     213   83    1      -0.8149158941E+03      0.5546303272E+04      0.2811347979E+02     -0.3348196197E+00
          0                 2           2           213   83     1       0.2891006805E-01     213   83    1       0.8147025278E+02      0.5546515535E+03      0.5546303272E+04      0.2891006805E-01

    ------------------------------------------------
       NWT REQUIRED            2 OUTER ITERATIONS 
       AND A TOTAL OF          5 INNER ITERATIONS.
    ------------------------------------------------

 NO OUTPUT CONTROL FOR STRESS PERIOD   67   TIME STEP    8

 WELLS WITH REDUCED PUMPING FOR STRESS PERIOD    67 TIME STEP     8
   LAY   ROW   COL         APPL.Q          ACT.Q        GW-HEAD       CELL-BOT
     1    77   213  -0.234339E+04  -0.916581E+03   0.153109E+03   0.148000E+03
     1    92    77  -0.234339E+04  -0.436515E+03  -0.863516E+02  -0.930000E+02
     1    94    77  -0.234339E+04  -0.504965E+03  -0.952237E+02  -0.102000E+03
     1    94    73  -0.234339E+04  -0.587099E+03  -0.674054E+02  -0.740000E+02


 SOLVING FOR HEAD 
                                                   Max.-Head-Change                        Max.-Flux-Residual
  Residual-Control   Outer-Iter.   Inner-Iter.     Column Row Layer    Max.-Head-Change    Column Row Layer    Max.-Flux-Residual            L2-New               L2-Old           Solver-Max-Delh
          0                 1           3           213   83     1      -0.3300387378E+00     213   83    1      -0.8031871701E+03      0.5480986608E+04      0.2773253664E+02     -0.3300387378E+00
          0                 2           2           213   83     1       0.2849730176E-01     213   83    1       0.8029782405E+02      0.5480882740E+03      0.5480986608E+04      0.2849730176E-01

    ------------------------------------------------
       NWT REQUIRED            2 OUTER ITERATIONS 
       AND A TOTAL OF          5 INNER ITERATIONS.
    ------------------------------------------------

 NO OUTPUT CONTROL FOR STRESS PERIOD   67   TIME STEP    9

 WELLS WITH REDUCED PUMPING FOR STRESS PERIOD    67 TIME STEP     9
   LAY   ROW   COL         APPL.Q          ACT.Q        GW-HEAD       CELL-BOT
     1    77   213  -0.234339E+04  -0.903056E+03   0.153062E+03   0.148000E+03
     1    92    77  -0.234339E+04  -0.436542E+03  -0.863513E+02  -0.930000E+02
     1    94    77  -0.234339E+04  -0.498973E+03  -0.952697E+02  -0.102000E+03
     1    94    73  -0.234339E+04  -0.579506E+03  -0.674550E+02  -0.740000E+02


 SOLVING FOR HEAD 
                                                   Max.-Head-Change                        Max.-Flux-Residual
  Residual-Control   Outer-Iter.   Inner-Iter.     Column Row Layer    Max.-Head-Change    Column Row Layer    Max.-Flux-Residual            L2-New               L2-Old           Solver-Max-Delh
          0                 1           3           213   83     1      -0.3253587076E+00     213   83    1      -0.7917068930E+03      0.5423672387E+04      0.2740434209E+02     -0.3253587076E+00
          0                 2           2           213   83     1       0.2809324264E-01     213   83    1       0.7915023035E+02      0.5423561907E+03      0.5423672387E+04      0.2809324264E-01

    ------------------------------------------------
       NWT REQUIRED            2 OUTER ITERATIONS 
       AND A TOTAL OF          5 INNER ITERATIONS.
    ------------------------------------------------

 OUTPUT CONTROL FOR STRESS PERIOD   67   TIME STEP   10
    SAVE HEAD FOR ALL LAYERS

 WELLS WITH REDUCED PUMPING FOR STRESS PERIOD    67 TIME STEP    10
   LAY   ROW   COL         APPL.Q          ACT.Q        GW-HEAD       CELL-BOT
     1    77   213  -0.234339E+04  -0.890911E+03   0.153019E+03   0.148000E+03
     1    92    77  -0.234339E+04  -0.436576E+03  -0.863510E+02  -0.930000E+02
     1    94    77  -0.234339E+04  -0.493286E+03  -0.953136E+02  -0.102000E+03
     1    94    73  -0.234339E+04  -0.572362E+03  -0.675019E+02  -0.740000E+02


 HEAD WILL BE SAVED ON UNIT   51 AT END OF TIME STEP   10, STRESS PERIOD   67
1
  VOLUMETRIC BUDGET FOR ENTIRE MODEL AT END OF TIME STEP   10, STRESS PERIOD  67
  ------------------------------------------------------------------------------

     CUMULATIVE VOLUMES      L**3       RATES FOR THIS TIME STEP      L**3/T
     ------------------                 ------------------------

           IN:                                      IN:
           ---                                      ---
             STORAGE =   656939712.0000               STORAGE =      268191.8750
       CONSTANT HEAD =   103720776.0000         CONSTANT HEAD =       52135.7891
               WELLS =           0.0000                 WELLS =           0.0000
              DRAINS =           0.0000                DRAINS =           0.0000
                  ET =           0.0000                    ET =           0.0000
            RECHARGE =   381174848.0000              RECHARGE =      243777.1406

            TOTAL IN =  1141835264.0000              TOTAL IN =      564104.8125

          OUT:                                     OUT:
          ----                                     ----
             STORAGE =   206984752.0000               STORAGE =       38259.9805
       CONSTANT HEAD =           0.0000         CONSTANT HEAD =           0.0000
               WELLS =   612659200.0000                 WELLS =      403285.8125
              DRAINS =   227567120.0000                DRAINS =       86901.2188
                  ET =    92999192.0000                    ET =       34513.2461
            RECHARGE =      252575.6250              RECHARGE =           0.0000

           TOTAL OUT =  1140462848.0000             TOTAL OUT =      562960.2500

            IN - OUT =     1372416.0000              IN - OUT =        1144.5625

 PERCENT DISCREPANCY =           0.12     PERCENT DISCREPANCY =           0.20






         TIME SUMMARY AT END OF TIME STEP   10 IN STRESS PERIOD   67
                    SECONDS     MINUTES      HOURS       DAYS        YEARS
                    -----------------------------------------------------------
   TIME STEP LENGTH 2.62656E+05  4377.6      72.960      3.0400     8.32307E-03
 STRESS PERIOD TIME 2.62656E+06  43776.      729.60      30.400     8.32307E-02
         TOTAL TIME 1.75980E+08 2.93301E+06  48883.      2036.8      5.5765    
1
1
                            STRESS PERIOD NO.   68, LENGTH =   30.40000    
                            -----------------------------------------------

                              NUMBER OF TIME STEPS =    10

                               MULTIPLIER FOR DELT =     1.000

                            INITIAL TIME STEP SIZE =   3.040000    

 WELL NO.  LAYER   ROW   COL   STRESS RATE         
 --------------------------------------------------
      1      1     69    225      -5789.    
      2      1     71    224       0.000    
      3      1     74    220       0.000    
      4      1     73    220       0.000    
      5      1     71    223       0.000    
      6      1     71    223       0.000    
      7      1     72    223       0.000    
      8      1     92    173       0.000    
      9      1     94    174       0.000    
     10      1     93    175       0.000    
     11      1    203    328       0.000    
     12      1    438    460      -0.000    
     13      1    436    461      -0.000    
     14      1    410    454      -0.000    
     15      1    433    460      -0.000    
     16      1    431    462      -0.000    
     17      1    417    459      -0.000    
     18      1    418    458      -0.000    
     19      1    414    455      -0.000    
     20      1    443    464      -0.000    
     21      1    379    425      -0.000    
     22      1    362    405      -0.000    
     23      1    361    405      -0.000    
     24      1    362    406      -0.000    
     25      1    363    408      -0.000    
     26      1    364    410      -0.000    
     27      1    369    418      -0.000    
     28      1    367    417      -0.000    
     29      1    365    415      -0.000    
     30      1    402    447      -0.000    
     31      1    400    446      -0.000    
     32      1    392    444      -0.000    
     33      1    391    441      -0.000    
     34      1    403    448      -0.000    
     35      1    405    447      -0.000    
     36      1    362    410      -0.000    
     37      1    362    411      -0.000    
     38      1    363    412      -0.000    
     39      1    375    421      -0.000    
     40      1    383    430      -0.000    
     41      1    397    445      -0.000    
     42      1    360    403      -0.000    
     43      1    350    401      -0.000    
     44      1    346    393      -49.88    
     45      1    333    387      -49.88    
     46      1    328    384      -49.88    
     47      1    326    383      -49.88    
     48      1    323    378      -49.88    
     49      1    321    378      -49.88    
     50      1    322    376      -49.88    
     51      1    316    374      -49.88    
     52      1    311    371      -49.88    
     53      1    307    369      -49.88    
     54      1    305    368      -49.88    
     55      1    303    368      -49.88    
     56      1    300    369      -49.88    
     57      1    293    364      -49.88    
     58      1    292    362      -49.88    
     59      1    278    350      -49.88    
     60      1    274    351      -49.88    
     61      1    273    350      -49.88    
     62      1    271    350      -49.88    
     63      1    267    348      -49.88    
     64      1    263    348      -49.88    
     65      1    263    348      -49.88    
     66      1    248    347      -49.88    
     67      1    243    342      -49.88    
     68      1    242    339      -49.88    
     69      1    238    341      -49.88    
     70      1    233    340      -49.88    
     71      1    232    340      -49.88    
     72      1    229    341      -49.88    
     73      1    227    341      -49.88    
     74      1    219    342      -49.88    
     75      1    219    336      -49.88    
     76      1    199    329      -49.88    
     77      1    191    332      -0.000    
     78      1    190    332      -0.000    
     79      1    130    310      -0.000    
     80      1    123    305      -0.000    
     81      1    104    289      -0.000    
     82      1     96    287      -510.6    
     83      1     95    284      -510.6    
     84      1     95    280      -510.6    
     85      1     93    276      -510.6    
     86      1     94    275      -510.6    
     87      1     90    277      -510.6    
     88      1     90    273      -510.6    
     89      1     86    271      -510.6    
     90      1     85    270      -510.6    
     91      1     84    265      -510.6    
     92      1     85    265      -510.6    
     93      1     84    264      -510.6    
     94      1     79    263      -510.6    
     95      1     79    263      -510.6    
     96      1     76    262      -510.6    
     97      1     73    257      -510.6    
     98      1     74    255      -510.6    
     99      1     71    255      -510.6    
    100      1     66    253      -510.6    
    101      1     68    252      -510.6    
    102      1     69    250      -510.6    
    103      1     65    248      -510.6    
    104      1     68    248      -510.6    
    105      1     69    247      -510.6    
    106      1     73    247      -510.6    
    107      1     64    246      -510.6    
    108      1     69    245      -510.6    
    109      1     72    245      -510.6    
    110      1     69    241      -510.6    
    111      1     73    238      -510.6    
    112      1     70    238      -510.6    
    113      1     76    263      -510.6    
    114      1     66    232      -620.9    
    115      1     69    229      -620.9    
    116      1     71    228      -620.9    
    117      1     69    227      -620.9    
    118      1     72    219      -620.9    
    119      1     72    218      -620.9    
    120      1     72    218      -620.9    
    121      1     73    217      -620.9    
    122      1     77    219      -620.9    
    123      1     78    219      -620.9    
    124      1     83    213      -620.9    
    125      1     77    213      -620.9    
    126      1     81    211      -620.9    
    127      1     81    210      -620.9    
    128      1     81    210      -620.9    
    129      1     82    208      -620.9    
    130      1     80    205      -620.9    
    131      1     86    202      -620.9    
    132      1     84    200      -620.9    
    133      1     89    200      -620.9    
    134      1     89    199      -620.9    
    135      1     88    199      -620.9    
    136      1     86    199      -620.9    
    137      1     85    199      -620.9    
    138      1     82    197      -620.9    
    139      1     86    197      -620.9    
    140      1     88    198      -620.9    
    141      1     90    192      -620.9    
    142      1     89    191      -620.9    
    143      1     84    192      -620.9    
    144      1     91    189      -620.9    
    145      1     92    185      -620.9    
    146      1     87    183      -620.9    
    147      1     92    182      -620.9    
    148      1     90    182      -620.9    
    149      1     88    179      -620.9    
    150      1     89    176      -620.9    
    151      1     92    172      -620.9    
    152      1     93    164      -620.9    
    153      1     94    162      -620.9    
    154      1    103    156      -620.9    
    155      1    103    156      -620.9    
    156      1     96    154      -620.9    
    157      1     97    153      -620.9    
    158      1    122    139      -620.9    
    159      1     92     77      -620.9    
    160      1     94     77      -620.9    
    161      1     94     73      -620.9    
    162      1     97    152      -620.9    
    163      1    118    337      -666.7    
    164      1    133    319      -2678.    
    165      1    131    320      -3951.    
    166      1    133    321      -2956.    
    167      1    161    329      -2141.    
    168      1    178    330      -551.0    
    169      1    163    330      -1122.    
    170      1    131    320      -2473.    
    171      1    129    315      -3937.    
    172      1    162    329      -1959.    
    173      1    131    311      -826.1    
    174      1    221    340      -1994.    
    175      1    220    340      -1034.    
    176      1    221    340      -667.7    
    177      1    137    322      -2082.    
    178      1    137    321      -1407.    
    179      1    185    329      -2012.    
    180      1    183    329      -1473.    
    181      1    175    329      -585.3    
    182      1     79    243      -1490.    
    183      1     77    245      -2414.    
    184      1    199    329      -1617.    
    185      1    198    330      -2514.    
    186      1    140    328      -972.1    
    187      1    143    327      -863.6    
    188      1    139    327      -1331.    

    188 WELLS

 REUSING NON-PARAMETER DRAINS FROM LAST STRESS PERIOD

   1061 DRAINS

 REUSING SURF FROM LAST STRESS PERIOD

 REUSING EVTR FROM LAST STRESS PERIOD

 REUSING EXDP FROM LAST STRESS PERIOD



                           RECHARGE
 READING ON UNIT   19 WITH FORMAT: (510E15.6)          

 SOLVING FOR HEAD 
                                                   Max.-Head-Change                        Max.-Flux-Residual
  Residual-Control   Outer-Iter.   Inner-Iter.     Column Row Layer    Max.-Head-Change    Column Row Layer    Max.-Flux-Residual            L2-New               L2-Old           Solver-Max-Delh
          0                 1           3           263   79     1       0.2078302403E+02     263   79    1       0.6513758441E+04      0.2853214523E+05      0.2711772397E+02      0.2078302403E+02
          0                 2           2           263   79     1      -0.2014597765E+01     263   79    1      -0.7584765305E+03      0.2972626287E+04      0.2853214523E+05     -0.2014597765E+01
          0                 3           2           263   79     1      -0.1032878183E+00     263   79    1      -0.3883468539E+02      0.1507454147E+03      0.2972626287E+04     -0.1032878183E+00
          0                 4           2           457  453     1       0.1010776934E-01     263   79    1      -0.1943704507E+01      0.7536485547E+01      0.1507454147E+03      0.1010776934E-01

    ------------------------------------------------
       NWT REQUIRED            4 OUTER ITERATIONS 
       AND A TOTAL OF          9 INNER ITERATIONS.
    ------------------------------------------------

 NO OUTPUT CONTROL FOR STRESS PERIOD   68   TIME STEP    1

 WELLS WITH REDUCED PUMPING FOR STRESS PERIOD    68 TIME STEP     1
   LAY   ROW   COL         APPL.Q          ACT.Q        GW-HEAD       CELL-BOT
     1    77   213  -0.620891E+03  -0.250588E+03   0.153210E+03   0.148000E+03
     1    92    77  -0.620891E+03  -0.173941E+03  -0.845921E+02  -0.930000E+02
     1    94    77  -0.620891E+03  -0.133585E+03  -0.952297E+02  -0.102000E+03
     1    94    73  -0.620891E+03  -0.155793E+03  -0.673995E+02  -0.740000E+02


 SOLVING FOR HEAD 
                                                   Max.-Head-Change                        Max.-Flux-Residual
  Residual-Control   Outer-Iter.   Inner-Iter.     Column Row Layer    Max.-Head-Change    Column Row Layer    Max.-Flux-Residual            L2-New               L2-Old           Solver-Max-Delh
          0                 1           3           263   79     1       0.8804900848E+01     263   79    1       0.2659382963E+04      0.1276588758E+05      0.7536485547E+01      0.8804900848E+01
          0                 2           2           263   79     1      -0.8186692760E+00     263   79    1      -0.2941631840E+03      0.1293151604E+04      0.1276588758E+05     -0.8186692760E+00
          0                 3           2           263   79     1      -0.4158640539E-01     263   79    1      -0.1494272456E+02      0.6533976305E+02      0.1293151604E+04     -0.4158640539E-01

    ------------------------------------------------
       NWT REQUIRED            3 OUTER ITERATIONS 
       AND A TOTAL OF          7 INNER ITERATIONS.
    ------------------------------------------------

 NO OUTPUT CONTROL FOR STRESS PERIOD   68   TIME STEP    2

 WELLS WITH REDUCED PUMPING FOR STRESS PERIOD    68 TIME STEP     2
   LAY   ROW   COL         APPL.Q          ACT.Q        GW-HEAD       CELL-BOT
     1    77   213  -0.620891E+03  -0.264747E+03   0.153395E+03   0.148000E+03
     1    92    77  -0.620891E+03  -0.223064E+03  -0.832373E+02  -0.930000E+02
     1    94    77  -0.620891E+03  -0.136452E+03  -0.951470E+02  -0.102000E+03
     1    94    73  -0.620891E+03  -0.159901E+03  -0.672987E+02  -0.740000E+02


 SOLVING FOR HEAD 
                                                   Max.-Head-Change                        Max.-Flux-Residual
  Residual-Control   Outer-Iter.   Inner-Iter.     Column Row Layer    Max.-Head-Change    Column Row Layer    Max.-Flux-Residual            L2-New               L2-Old           Solver-Max-Delh
          0                 1           3           263   79     1       0.3999805423E+01     156  103    1       0.2099852775E+04      0.9644852962E+04      0.6533976305E+02      0.3999805423E+01
          0                 2           2           263   79     1      -0.3675127065E+00     156  103    1      -0.2101253740E+03      0.9741716845E+03      0.9644852962E+04     -0.3675127065E+00
          0                 3           2           263   79     1      -0.1854912884E-01     156  103    1      -0.1050730880E+02      0.4873910196E+02      0.9741716845E+03     -0.1854912884E-01

    ------------------------------------------------
       NWT REQUIRED            3 OUTER ITERATIONS 
       AND A TOTAL OF          7 INNER ITERATIONS.
    ------------------------------------------------

 NO OUTPUT CONTROL FOR STRESS PERIOD   68   TIME STEP    3

 WELLS WITH REDUCED PUMPING FOR STRESS PERIOD    68 TIME STEP     3
   LAY   ROW   COL         APPL.Q          ACT.Q        GW-HEAD       CELL-BOT
     1    77   213  -0.620891E+03  -0.278500E+03   0.153573E+03   0.148000E+03
     1    92    77  -0.620891E+03  -0.262142E+03  -0.822029E+02  -0.930000E+02
     1    94    77  -0.620891E+03  -0.139297E+03  -0.950655E+02  -0.102000E+03
     1    94    73  -0.620891E+03  -0.163971E+03  -0.671997E+02  -0.740000E+02


 SOLVING FOR HEAD 
                                                   Max.-Head-Change                        Max.-Flux-Residual
  Residual-Control   Outer-Iter.   Inner-Iter.     Column Row Layer    Max.-Head-Change    Column Row Layer    Max.-Flux-Residual            L2-New               L2-Old           Solver-Max-Delh
          0                 1           3           263   79     1       0.1975817037E+01     378  321    1       0.1758716360E+04      0.8117489215E+04      0.4873910196E+02      0.1975817037E+01
          0                 2           2           263   79     1      -0.1743949256E+00     378  321    1      -0.1759742638E+03      0.8154801191E+03      0.8117489215E+04     -0.1743949256E+00
          0                 3           2           457  453     1       0.9839108537E-02     378  321    1      -0.8799474461E+01      0.4077902033E+02      0.8154801191E+03      0.9839108537E-02

    ------------------------------------------------
       NWT REQUIRED            3 OUTER ITERATIONS 
       AND A TOTAL OF          7 INNER ITERATIONS.
    ------------------------------------------------

 NO OUTPUT CONTROL FOR STRESS PERIOD   68   TIME STEP    4

 WELLS WITH REDUCED PUMPING FOR STRESS PERIOD    68 TIME STEP     4
   LAY   ROW   COL         APPL.Q          ACT.Q        GW-HEAD       CELL-BOT
     1    77   213  -0.620891E+03  -0.291830E+03   0.153744E+03   0.148000E+03
     1    92    77  -0.620891E+03  -0.292377E+03  -0.814162E+02  -0.930000E+02
     1    94    77  -0.620891E+03  -0.142119E+03  -0.949851E+02  -0.102000E+03
     1    94    73  -0.620891E+03  -0.167999E+03  -0.671024E+02  -0.740000E+02


 SOLVING FOR HEAD 
                                                   Max.-Head-Change                        Max.-Flux-Residual
  Residual-Control   Outer-Iter.   Inner-Iter.     Column Row Layer    Max.-Head-Change    Column Row Layer    Max.-Flux-Residual            L2-New               L2-Old           Solver-Max-Delh
          0                 1           3           263   78     1       0.1187679565E+01     378  321    1       0.1603304767E+04      0.7168843902E+04      0.4077902033E+02      0.1187679565E+01
          0                 2           2           263   78     1      -0.1039243711E+00     378  321    1      -0.1604334366E+03      0.7189992119E+03      0.7168843902E+04     -0.1039243711E+00
          0                 3           2           457  453     1       0.9749666976E-02     378  321    1      -0.8022436082E+01      0.3595454466E+02      0.7189992119E+03      0.9749666976E-02

    ------------------------------------------------
       NWT REQUIRED            3 OUTER ITERATIONS 
       AND A TOTAL OF          7 INNER ITERATIONS.
    ------------------------------------------------

 NO OUTPUT CONTROL FOR STRESS PERIOD   68   TIME STEP    5

 WELLS WITH REDUCED PUMPING FOR STRESS PERIOD    68 TIME STEP     5
   LAY   ROW   COL         APPL.Q          ACT.Q        GW-HEAD       CELL-BOT
     1    77   213  -0.620891E+03  -0.304726E+03   0.153910E+03   0.148000E+03
     1    92    77  -0.620891E+03  -0.315462E+03  -0.808185E+02  -0.930000E+02
     1    94    77  -0.620891E+03  -0.144917E+03  -0.949060E+02  -0.102000E+03
     1    94    73  -0.620891E+03  -0.171985E+03  -0.670067E+02  -0.740000E+02


 SOLVING FOR HEAD 
                                                   Max.-Head-Change                        Max.-Flux-Residual
  Residual-Control   Outer-Iter.   Inner-Iter.     Column Row Layer    Max.-Head-Change    Column Row Layer    Max.-Flux-Residual            L2-New               L2-Old           Solver-Max-Delh
          0                 1           3           264   78     1       0.9921271345E+00     378  321    1       0.1465853855E+04      0.6503482401E+04      0.3595454466E+02      0.9921271345E+00
          0                 2           2           264   78     1      -0.8708789007E-01     378  321    1      -0.1466849735E+03      0.6506901530E+03      0.6503482401E+04     -0.8708789007E-01

    ------------------------------------------------
       NWT REQUIRED            2 OUTER ITERATIONS 
       AND A TOTAL OF          5 INNER ITERATIONS.
    ------------------------------------------------

 NO OUTPUT CONTROL FOR STRESS PERIOD   68   TIME STEP    6

 WELLS WITH REDUCED PUMPING FOR STRESS PERIOD    68 TIME STEP     6
   LAY   ROW   COL         APPL.Q          ACT.Q        GW-HEAD       CELL-BOT
     1    77   213  -0.620891E+03  -0.317241E+03   0.154071E+03   0.148000E+03
     1    92    77  -0.620891E+03  -0.333066E+03  -0.803624E+02  -0.930000E+02
     1    94    77  -0.620891E+03  -0.147705E+03  -0.948276E+02  -0.102000E+03
     1    94    73  -0.620891E+03  -0.175947E+03  -0.669122E+02  -0.740000E+02


 SOLVING FOR HEAD 
                                                   Max.-Head-Change                        Max.-Flux-Residual
  Residual-Control   Outer-Iter.   Inner-Iter.     Column Row Layer    Max.-Head-Change    Column Row Layer    Max.-Flux-Residual            L2-New               L2-Old           Solver-Max-Delh
          0                 1           3           264   78     1       0.8234458159E+00     378  321    1       0.1343273909E+04      0.6002660690E+04      0.3253753087E+02      0.8234458159E+00
          0                 2           2           264   78     1      -0.7215992351E-01     378  321    1      -0.1344215355E+03      0.6012042533E+03      0.6002660690E+04     -0.7215992351E-01

    ------------------------------------------------
       NWT REQUIRED            2 OUTER ITERATIONS 
       AND A TOTAL OF          5 INNER ITERATIONS.
    ------------------------------------------------

 NO OUTPUT CONTROL FOR STRESS PERIOD   68   TIME STEP    7

 WELLS WITH REDUCED PUMPING FOR STRESS PERIOD    68 TIME STEP     7
   LAY   ROW   COL         APPL.Q          ACT.Q        GW-HEAD       CELL-BOT
     1    77   213  -0.620891E+03  -0.329309E+03   0.154226E+03   0.148000E+03
     1    92    77  -0.620891E+03  -0.346374E+03  -0.800166E+02  -0.930000E+02
     1    94    77  -0.620891E+03  -0.150467E+03  -0.947504E+02  -0.102000E+03
     1    94    73  -0.620891E+03  -0.179863E+03  -0.668194E+02  -0.740000E+02


 SOLVING FOR HEAD 
                                                   Max.-Head-Change                        Max.-Flux-Residual
  Residual-Control   Outer-Iter.   Inner-Iter.     Column Row Layer    Max.-Head-Change    Column Row Layer    Max.-Flux-Residual            L2-New               L2-Old           Solver-Max-Delh
          0                 1           3           264   78     1       0.6799730053E+00     378  321    1       0.1234184981E+04      0.5610546705E+04      0.3006507653E+02      0.6799730053E+00
          0                 2           2           264   78     1      -0.5944928324E-01     378  321    1      -0.1235061755E+03      0.5647559694E+03      0.5610546705E+04     -0.5944928324E-01

    ------------------------------------------------
       NWT REQUIRED            2 OUTER ITERATIONS 
       AND A TOTAL OF          5 INNER ITERATIONS.
    ------------------------------------------------

 NO OUTPUT CONTROL FOR STRESS PERIOD   68   TIME STEP    8

 WELLS WITH REDUCED PUMPING FOR STRESS PERIOD    68 TIME STEP     8
   LAY   ROW   COL         APPL.Q          ACT.Q        GW-HEAD       CELL-BOT
     1    77   213  -0.620891E+03  -0.340932E+03   0.154376E+03   0.148000E+03
     1    92    77  -0.620891E+03  -0.356425E+03  -0.797544E+02  -0.930000E+02
     1    94    77  -0.620891E+03  -0.153204E+03  -0.946743E+02  -0.102000E+03
     1    94    73  -0.620891E+03  -0.183734E+03  -0.667281E+02  -0.740000E+02


 SOLVING FOR HEAD 
                                                   Max.-Head-Change                        Max.-Flux-Residual
  Residual-Control   Outer-Iter.   Inner-Iter.     Column Row Layer    Max.-Head-Change    Column Row Layer    Max.-Flux-Residual            L2-New               L2-Old           Solver-Max-Delh
          0                 1           3           264   78     1       0.5637430285E+00     378  321    1       0.1136809461E+04      0.5294070524E+04      0.2825158394E+02      0.5637430285E+00
          0                 2           2           264   78     1      -0.4917747755E-01     378  321    1      -0.1137617809E+03      0.5295432209E+03      0.5294070524E+04     -0.4917747755E-01

    ------------------------------------------------
       NWT REQUIRED            2 OUTER ITERATIONS 
       AND A TOTAL OF          5 INNER ITERATIONS.
    ------------------------------------------------

 NO OUTPUT CONTROL FOR STRESS PERIOD   68   TIME STEP    9

 WELLS WITH REDUCED PUMPING FOR STRESS PERIOD    68 TIME STEP     9
   LAY   ROW   COL         APPL.Q          ACT.Q        GW-HEAD       CELL-BOT
     1    77   213  -0.620891E+03  -0.352114E+03   0.154521E+03   0.148000E+03
     1    92    77  -0.620891E+03  -0.364012E+03  -0.795558E+02  -0.930000E+02
     1    94    77  -0.620891E+03  -0.155915E+03  -0.945993E+02  -0.102000E+03
     1    94    73  -0.620891E+03  -0.187556E+03  -0.666385E+02  -0.740000E+02


 SOLVING FOR HEAD 
                                                   Max.-Head-Change                        Max.-Flux-Residual
  Residual-Control   Outer-Iter.   Inner-Iter.     Column Row Layer    Max.-Head-Change    Column Row Layer    Max.-Flux-Residual            L2-New               L2-Old           Solver-Max-Delh
          0                 1           3           343  217     1       0.4788713036E+00     378  321    1       0.1049649728E+04      0.5032229560E+04      0.2648797999E+02      0.4788713036E+00
          0                 2           2           343  217     1      -0.4156327164E-01     378  321    1      -0.1050389817E+03      0.5034418251E+03      0.5032229560E+04     -0.4156327164E-01

    ------------------------------------------------
       NWT REQUIRED            2 OUTER ITERATIONS 
       AND A TOTAL OF          5 INNER ITERATIONS.
    ------------------------------------------------

 OUTPUT CONTROL FOR STRESS PERIOD   68   TIME STEP   10
    SAVE HEAD FOR ALL LAYERS

 WELLS WITH REDUCED PUMPING FOR STRESS PERIOD    68 TIME STEP    10
   LAY   ROW   COL         APPL.Q          ACT.Q        GW-HEAD       CELL-BOT
     1    77   213  -0.620891E+03  -0.362860E+03   0.154660E+03   0.148000E+03
     1    92    77  -0.620891E+03  -0.369734E+03  -0.794055E+02  -0.930000E+02
     1    94    77  -0.620891E+03  -0.158598E+03  -0.945255E+02  -0.102000E+03
     1    94    73  -0.620891E+03  -0.191331E+03  -0.665505E+02  -0.740000E+02


 HEAD WILL BE SAVED ON UNIT   51 AT END OF TIME STEP   10, STRESS PERIOD   68
1
  VOLUMETRIC BUDGET FOR ENTIRE MODEL AT END OF TIME STEP   10, STRESS PERIOD  68
  ------------------------------------------------------------------------------

     CUMULATIVE VOLUMES      L**3       RATES FOR THIS TIME STEP      L**3/T
     ------------------                 ------------------------

           IN:                                      IN:
           ---                                      ---
             STORAGE =   661703680.0000               STORAGE =      129148.6562
       CONSTANT HEAD =   105305768.0000         CONSTANT HEAD =       52139.3008
               WELLS =           0.0000                 WELLS =           0.0000
              DRAINS =           0.0000                DRAINS =           0.0000
                  ET =           0.0000                    ET =           0.0000
            RECHARGE =   386204608.0000              RECHARGE =      165457.7500

            TOTAL IN =  1153214080.0000              TOTAL IN =      346745.6875

          OUT:                                     OUT:
          ----                                     ----
             STORAGE =   211530336.0000               STORAGE =      117080.8984
       CONSTANT HEAD =           0.0000         CONSTANT HEAD =           0.0000
               WELLS =   615620352.0000                 WELLS =       97553.9297
              DRAINS =   230355856.0000                DRAINS =       95285.2812
                  ET =    94081880.0000                    ET =       36770.8711
            RECHARGE =      252575.6250              RECHARGE =           0.0000

           TOTAL OUT =  1151841024.0000             TOTAL OUT =      346691.0000

            IN - OUT =     1373056.0000              IN - OUT =          54.6875

 PERCENT DISCREPANCY =           0.12     PERCENT DISCREPANCY =           0.02






         TIME SUMMARY AT END OF TIME STEP   10 IN STRESS PERIOD   68
                    SECONDS     MINUTES      HOURS       DAYS        YEARS
                    -----------------------------------------------------------
   TIME STEP LENGTH 2.62656E+05  4377.6      72.960      3.0400     8.32307E-03
 STRESS PERIOD TIME 2.62656E+06  43776.      729.60      30.400     8.32307E-02
         TOTAL TIME 1.78607E+08 2.97678E+06  49613.      2067.2      5.6597    
1
1
                            STRESS PERIOD NO.   69, LENGTH =   30.40000    
                            -----------------------------------------------

                              NUMBER OF TIME STEPS =    10

                               MULTIPLIER FOR DELT =     1.000

                            INITIAL TIME STEP SIZE =   3.040000    

 WELL NO.  LAYER   ROW   COL   STRESS RATE         
 --------------------------------------------------
      1      1     69    225      -5875.    
      2      1     71    224       0.000    
      3      1     74    220       0.000    
      4      1     73    220       0.000    
      5      1     71    223       0.000    
      6      1     71    223       0.000    
      7      1     72    223       0.000    
      8      1     92    173       0.000    
      9      1     94    174       0.000    
     10      1     93    175       0.000    
     11      1    203    328       0.000    
     12      1    438    460      -550.5    
     13      1    436    461      -550.5    
     14      1    410    454      -550.5    
     15      1    433    460      -550.5    
     16      1    431    462      -550.5    
     17      1    417    459      -550.5    
     18      1    418    458      -550.5    
     19      1    414    455      -550.5    
     20      1    443    464      -550.5    
     21      1    379    425      -550.5    
     22      1    362    405      -550.5    
     23      1    361    405      -550.5    
     24      1    362    406      -550.5    
     25      1    363    408      -550.5    
     26      1    364    410      -550.5    
     27      1    369    418      -550.5    
     28      1    367    417      -550.5    
     29      1    365    415      -550.5    
     30      1    402    447      -550.5    
     31      1    400    446      -550.5    
     32      1    392    444      -550.5    
     33      1    391    441      -550.5    
     34      1    403    448      -550.5    
     35      1    405    447      -550.5    
     36      1    362    410      -550.5    
     37      1    362    411      -550.5    
     38      1    363    412      -550.5    
     39      1    375    421      -550.5    
     40      1    383    430      -550.5    
     41      1    397    445      -550.5    
     42      1    360    403      -550.5    
     43      1    350    401      -550.5    
     44      1    346    393      -581.6    
     45      1    333    387      -581.6    
     46      1    328    384      -581.6    
     47      1    326    383      -581.6    
     48      1    323    378      -581.6    
     49      1    321    378      -581.6    
     50      1    322    376      -581.6    
     51      1    316    374      -581.6    
     52      1    311    371      -581.6    
     53      1    307    369      -581.6    
     54      1    305    368      -581.6    
     55      1    303    368      -581.6    
     56      1    300    369      -581.6    
     57      1    293    364      -581.6    
     58      1    292    362      -581.6    
     59      1    278    350      -581.6    
     60      1    274    351      -581.6    
     61      1    273    350      -581.6    
     62      1    271    350      -581.6    
     63      1    267    348      -581.6    
     64      1    263    348      -581.6    
     65      1    263    348      -581.6    
     66      1    248    347      -581.6    
     67      1    243    342      -581.6    
     68      1    242    339      -581.6    
     69      1    238    341      -581.6    
     70      1    233    340      -581.6    
     71      1    232    340      -581.6    
     72      1    229    341      -581.6    
     73      1    227    341      -581.6    
     74      1    219    342      -581.6    
     75      1    219    336      -581.6    
     76      1    199    329      -581.6    
     77      1    191    332      -395.6    
     78      1    190    332      -395.6    
     79      1    130    310      -395.6    
     80      1    123    305      -395.6    
     81      1    104    289      -395.6    
     82      1     96    287      -1045.    
     83      1     95    284      -1045.    
     84      1     95    280      -1045.    
     85      1     93    276      -1045.    
     86      1     94    275      -1045.    
     87      1     90    277      -1045.    
     88      1     90    273      -1045.    
     89      1     86    271      -1045.    
     90      1     85    270      -1045.    
     91      1     84    265      -1045.    
     92      1     85    265      -1045.    
     93      1     84    264      -1045.    
     94      1     79    263      -1045.    
     95      1     79    263      -1045.    
     96      1     76    262      -1045.    
     97      1     73    257      -1045.    
     98      1     74    255      -1045.    
     99      1     71    255      -1045.    
    100      1     66    253      -1045.    
    101      1     68    252      -1045.    
    102      1     69    250      -1045.    
    103      1     65    248      -1045.    
    104      1     68    248      -1045.    
    105      1     69    247      -1045.    
    106      1     73    247      -1045.    
    107      1     64    246      -1045.    
    108      1     69    245      -1045.    
    109      1     72    245      -1045.    
    110      1     69    241      -1045.    
    111      1     73    238      -1045.    
    112      1     70    238      -1045.    
    113      1     76    263      -1045.    
    114      1     66    232      -728.1    
    115      1     69    229      -728.1    
    116      1     71    228      -728.1    
    117      1     69    227      -728.1    
    118      1     72    219      -728.1    
    119      1     72    218      -728.1    
    120      1     72    218      -728.1    
    121      1     73    217      -728.1    
    122      1     77    219      -728.1    
    123      1     78    219      -728.1    
    124      1     83    213      -728.1    
    125      1     77    213      -728.1    
    126      1     81    211      -728.1    
    127      1     81    210      -728.1    
    128      1     81    210      -728.1    
    129      1     82    208      -728.1    
    130      1     80    205      -728.1    
    131      1     86    202      -728.1    
    132      1     84    200      -728.1    
    133      1     89    200      -728.1    
    134      1     89    199      -728.1    
    135      1     88    199      -728.1    
    136      1     86    199      -728.1    
    137      1     85    199      -728.1    
    138      1     82    197      -728.1    
    139      1     86    197      -728.1    
    140      1     88    198      -728.1    
    141      1     90    192      -728.1    
    142      1     89    191      -728.1    
    143      1     84    192      -728.1    
    144      1     91    189      -728.1    
    145      1     92    185      -728.1    
    146      1     87    183      -728.1    
    147      1     92    182      -728.1    
    148      1     90    182      -728.1    
    149      1     88    179      -728.1    
    150      1     89    176      -728.1    
    151      1     92    172      -728.1    
    152      1     93    164      -728.1    
    153      1     94    162      -728.1    
    154      1    103    156      -728.1    
    155      1    103    156      -728.1    
    156      1     96    154      -728.1    
    157      1     97    153      -728.1    
    158      1    122    139      -728.1    
    159      1     92     77      -728.1    
    160      1     94     77      -728.1    
    161      1     94     73      -728.1    
    162      1     97    152      -728.1    
    163      1    118    337      -666.7    
    164      1    133    319      -2678.    
    165      1    131    320      -3951.    
    166      1    133    321      -2956.    
    167      1    161    329      -2141.    
    168      1    178    330      -551.0    
    169      1    163    330      -1122.    
    170      1    131    320      -2473.    
    171      1    129    315      -3937.    
    172      1    162    329      -1959.    
    173      1    131    311      -826.1    
    174      1    221    340      -1994.    
    175      1    220    340      -1034.    
    176      1    221    340      -667.7    
    177      1    137    322      -2082.    
    178      1    137    321      -1407.    
    179      1    185    329      -2012.    
    180      1    183    329      -1473.    
    181      1    175    329      -585.3    
    182      1     79    243      -1490.    
    183      1     77    245      -2414.    
    184      1    199    329      -1617.    
    185      1    198    330      -2514.    
    186      1    140    328      -972.1    
    187      1    143    327      -863.6    
    188      1    139    327      -1331.    

    188 WELLS

 REUSING NON-PARAMETER DRAINS FROM LAST STRESS PERIOD

   1061 DRAINS

 REUSING SURF FROM LAST STRESS PERIOD

 REUSING EVTR FROM LAST STRESS PERIOD

 REUSING EXDP FROM LAST STRESS PERIOD



                           RECHARGE
 READING ON UNIT   19 WITH FORMAT: (510E15.6)          

 SOLVING FOR HEAD 
                                                   Max.-Head-Change                        Max.-Flux-Residual
  Residual-Control   Outer-Iter.   Inner-Iter.     Column Row Layer    Max.-Head-Change    Column Row Layer    Max.-Flux-Residual            L2-New               L2-Old           Solver-Max-Delh
          0                 1           3           263   79     1      -0.3041673553E+01     263   79    1      -0.1036220282E+04      0.6021523958E+04      0.2517286981E+02     -0.3041673553E+01
          0                 2           2           263   79     1       0.2577581643E+00     263   79    1       0.1022828239E+03      0.6014682720E+03      0.6021523958E+04      0.2577581643E+00
          0                 3           2           263   79     1       0.1286464979E-01     263   79    1       0.5111456752E+01      0.3012055424E+02      0.6014682720E+03      0.1286464979E-01

    ------------------------------------------------
       NWT REQUIRED            3 OUTER ITERATIONS 
       AND A TOTAL OF          7 INNER ITERATIONS.
    ------------------------------------------------

 NO OUTPUT CONTROL FOR STRESS PERIOD   69   TIME STEP    1

 WELLS WITH REDUCED PUMPING FOR STRESS PERIOD    69 TIME STEP     1
   LAY   ROW   COL         APPL.Q          ACT.Q        GW-HEAD       CELL-BOT
     1    77   213  -0.728135E+03  -0.435518E+03   0.154771E+03   0.148000E+03
     1    92    77  -0.728135E+03  -0.423056E+03  -0.796414E+02  -0.930000E+02
     1    94    77  -0.728135E+03  -0.188670E+03  -0.944630E+02  -0.102000E+03
     1    94    73  -0.728135E+03  -0.228121E+03  -0.664764E+02  -0.740000E+02


 SOLVING FOR HEAD 
                                                   Max.-Head-Change                        Max.-Flux-Residual
  Residual-Control   Outer-Iter.   Inner-Iter.     Column Row Layer    Max.-Head-Change    Column Row Layer    Max.-Flux-Residual            L2-New               L2-Old           Solver-Max-Delh
          0                 1           3           263   79     1      -0.1209104968E+01     139  122    1       0.6760062210E+03      0.4060606243E+04      0.3012055424E+02     -0.1209104968E+01
          0                 2           2           263   79     1       0.1039165304E+00     458  429    1       0.7410432690E+02      0.4128606341E+03      0.4060606243E+04      0.1039165304E+00
          0                 3           2           457  453     1       0.9348614906E-02     458  429    1       0.3705501698E+01      0.2064376027E+02      0.4128606341E+03      0.9348614906E-02

    ------------------------------------------------
       NWT REQUIRED            3 OUTER ITERATIONS 
       AND A TOTAL OF          7 INNER ITERATIONS.
    ------------------------------------------------

 NO OUTPUT CONTROL FOR STRESS PERIOD   69   TIME STEP    2

 WELLS WITH REDUCED PUMPING FOR STRESS PERIOD    69 TIME STEP     2
   LAY   ROW   COL         APPL.Q          ACT.Q        GW-HEAD       CELL-BOT
     1    77   213  -0.728135E+03  -0.445061E+03   0.154878E+03   0.148000E+03
     1    92    77  -0.728135E+03  -0.415212E+03  -0.798163E+02  -0.930000E+02
     1    94    77  -0.728135E+03  -0.191311E+03  -0.944015E+02  -0.102000E+03
     1    94    73  -0.728135E+03  -0.231800E+03  -0.664039E+02  -0.740000E+02


 SOLVING FOR HEAD 
                                                   Max.-Head-Change                        Max.-Flux-Residual
  Residual-Control   Outer-Iter.   Inner-Iter.     Column Row Layer    Max.-Head-Change    Column Row Layer    Max.-Flux-Residual            L2-New               L2-Old           Solver-Max-Delh
          0                 1           3           263   79     1      -0.4882043763E+00     139  122    1       0.6560917668E+03      0.3813664314E+04      0.2064376027E+02     -0.4882043763E+00
          0                 2           2           263   79     1       0.4212805926E-01     139  122    1      -0.6561907054E+02      0.3813895893E+03      0.3813664314E+04      0.4212805926E-01

    ------------------------------------------------
       NWT REQUIRED            2 OUTER ITERATIONS 
       AND A TOTAL OF          5 INNER ITERATIONS.
    ------------------------------------------------

 NO OUTPUT CONTROL FOR STRESS PERIOD   69   TIME STEP    3

 WELLS WITH REDUCED PUMPING FOR STRESS PERIOD    69 TIME STEP     3
   LAY   ROW   COL         APPL.Q          ACT.Q        GW-HEAD       CELL-BOT
     1    77   213  -0.728135E+03  -0.454223E+03   0.154981E+03   0.148000E+03
     1    92    77  -0.728135E+03  -0.409346E+03  -0.799468E+02  -0.930000E+02
     1    94    77  -0.728135E+03  -0.193929E+03  -0.943409E+02  -0.102000E+03
     1    94    73  -0.728135E+03  -0.235434E+03  -0.663325E+02  -0.740000E+02


 SOLVING FOR HEAD 
                                                   Max.-Head-Change                        Max.-Flux-Residual
  Residual-Control   Outer-Iter.   Inner-Iter.     Column Row Layer    Max.-Head-Change    Column Row Layer    Max.-Flux-Residual            L2-New               L2-Old           Solver-Max-Delh
          0                 1           3           197   82     1       0.2646416850E+00     197   82    1       0.6450840169E+03      0.3689151258E+04      0.3813895893E+03      0.2646416850E+00
          0                 2           2           197   82     1      -0.2285787268E-01     197   82    1      -0.6451685952E+02      0.3689639372E+03      0.3689151258E+04     -0.2285787268E-01

    ------------------------------------------------
       NWT REQUIRED            2 OUTER ITERATIONS 
       AND A TOTAL OF          5 INNER ITERATIONS.
    ------------------------------------------------

 NO OUTPUT CONTROL FOR STRESS PERIOD   69   TIME STEP    4

 WELLS WITH REDUCED PUMPING FOR STRESS PERIOD    69 TIME STEP     4
   LAY   ROW   COL         APPL.Q          ACT.Q        GW-HEAD       CELL-BOT
     1    77   213  -0.728135E+03  -0.462975E+03   0.155080E+03   0.148000E+03
     1    92    77  -0.728135E+03  -0.404979E+03  -0.800437E+02  -0.930000E+02
     1    94    77  -0.728135E+03  -0.196511E+03  -0.942813E+02  -0.102000E+03
     1    94    73  -0.728135E+03  -0.239005E+03  -0.662626E+02  -0.740000E+02


 SOLVING FOR HEAD 
                                                   Max.-Head-Change                        Max.-Flux-Residual
  Residual-Control   Outer-Iter.   Inner-Iter.     Column Row Layer    Max.-Head-Change    Column Row Layer    Max.-Flux-Residual            L2-New               L2-Old           Solver-Max-Delh
          0                 1           3           197   82     1       0.2603518398E+00     197   82    1       0.6346177502E+03      0.3599158439E+04      0.3689639372E+03      0.2603518398E+00
          0                 2           2           197   82     1      -0.2248732194E-01     197   82    1      -0.6347001290E+02      0.3634245370E+03      0.3599158439E+04     -0.2248732194E-01

    ------------------------------------------------
       NWT REQUIRED            2 OUTER ITERATIONS 
       AND A TOTAL OF          5 INNER ITERATIONS.
    ------------------------------------------------

 NO OUTPUT CONTROL FOR STRESS PERIOD   69   TIME STEP    5

 WELLS WITH REDUCED PUMPING FOR STRESS PERIOD    69 TIME STEP     5
   LAY   ROW   COL         APPL.Q          ACT.Q        GW-HEAD       CELL-BOT
     1    77   213  -0.728135E+03  -0.471333E+03   0.155175E+03   0.148000E+03
     1    92    77  -0.728135E+03  -0.401717E+03  -0.801161E+02  -0.930000E+02
     1    94    77  -0.728135E+03  -0.199056E+03  -0.942228E+02  -0.102000E+03
     1    94    73  -0.728135E+03  -0.242513E+03  -0.661941E+02  -0.740000E+02


 SOLVING FOR HEAD 
                                                   Max.-Head-Change                        Max.-Flux-Residual
  Residual-Control   Outer-Iter.   Inner-Iter.     Column Row Layer    Max.-Head-Change    Column Row Layer    Max.-Flux-Residual            L2-New               L2-Old           Solver-Max-Delh
          0                 1           3           197   82     1       0.2561391778E+00     197   82    1       0.6243380363E+03      0.3524222036E+04      0.3634245370E+03      0.2561391778E+00
          0                 2           2           197   82     1      -0.2212343984E-01     197   82    1      -0.6244183117E+02      0.3525829186E+03      0.3524222036E+04     -0.2212343984E-01

    ------------------------------------------------
       NWT REQUIRED            2 OUTER ITERATIONS 
       AND A TOTAL OF          5 INNER ITERATIONS.
    ------------------------------------------------

 NO OUTPUT CONTROL FOR STRESS PERIOD   69   TIME STEP    6

 WELLS WITH REDUCED PUMPING FOR STRESS PERIOD    69 TIME STEP     6
   LAY   ROW   COL         APPL.Q          ACT.Q        GW-HEAD       CELL-BOT
     1    77   213  -0.728135E+03  -0.479313E+03   0.155266E+03   0.148000E+03
     1    92    77  -0.728135E+03  -0.399268E+03  -0.801704E+02  -0.930000E+02
     1    94    77  -0.728135E+03  -0.201564E+03  -0.941654E+02  -0.102000E+03
     1    94    73  -0.728135E+03  -0.245960E+03  -0.661271E+02  -0.740000E+02


 SOLVING FOR HEAD 
                                                   Max.-Head-Change                        Max.-Flux-Residual
  Residual-Control   Outer-Iter.   Inner-Iter.     Column Row Layer    Max.-Head-Change    Column Row Layer    Max.-Flux-Residual            L2-New               L2-Old           Solver-Max-Delh
          0                 1           3           197   82     1       0.2520026503E+00     197   82    1       0.6142432881E+03      0.3457705856E+04      0.3525829186E+03      0.2520026503E+00
          0                 2           2           197   82     1      -0.2176613517E-01     197   82    1      -0.6143215328E+02      0.3457822478E+03      0.3457705856E+04     -0.2176613517E-01

    ------------------------------------------------
       NWT REQUIRED            2 OUTER ITERATIONS 
       AND A TOTAL OF          5 INNER ITERATIONS.
    ------------------------------------------------

 NO OUTPUT CONTROL FOR STRESS PERIOD   69   TIME STEP    7

 WELLS WITH REDUCED PUMPING FOR STRESS PERIOD    69 TIME STEP     7
   LAY   ROW   COL         APPL.Q          ACT.Q        GW-HEAD       CELL-BOT
     1    77   213  -0.728135E+03  -0.486932E+03   0.155354E+03   0.148000E+03
     1    92    77  -0.728135E+03  -0.397418E+03  -0.802114E+02  -0.930000E+02
     1    94    77  -0.728135E+03  -0.204036E+03  -0.941089E+02  -0.102000E+03
     1    94    73  -0.728135E+03  -0.249343E+03  -0.660615E+02  -0.740000E+02


 SOLVING FOR HEAD 
                                                   Max.-Head-Change                        Max.-Flux-Residual
  Residual-Control   Outer-Iter.   Inner-Iter.     Column Row Layer    Max.-Head-Change    Column Row Layer    Max.-Flux-Residual            L2-New               L2-Old           Solver-Max-Delh
          0                 1           3           197   82     1       0.2479408991E+00     197   82    1       0.6043306116E+03      0.3396590685E+04      0.3457822478E+03      0.2479408991E+00
          0                 2           2           197   82     1      -0.2141529027E-01     197   82    1      -0.6044068878E+02      0.3396495170E+03      0.3396590685E+04     -0.2141529027E-01

    ------------------------------------------------
       NWT REQUIRED            2 OUTER ITERATIONS 
       AND A TOTAL OF          5 INNER ITERATIONS.
    ------------------------------------------------

 NO OUTPUT CONTROL FOR STRESS PERIOD   69   TIME STEP    8

 WELLS WITH REDUCED PUMPING FOR STRESS PERIOD    69 TIME STEP     8
   LAY   ROW   COL         APPL.Q          ACT.Q        GW-HEAD       CELL-BOT
     1    77   213  -0.728135E+03  -0.494205E+03   0.155438E+03   0.148000E+03
     1    92    77  -0.728135E+03  -0.396007E+03  -0.802426E+02  -0.930000E+02
     1    94    77  -0.728135E+03  -0.206472E+03  -0.940535E+02  -0.102000E+03
     1    94    73  -0.728135E+03  -0.252666E+03  -0.659973E+02  -0.740000E+02


 SOLVING FOR HEAD 
                                                   Max.-Head-Change                        Max.-Flux-Residual
  Residual-Control   Outer-Iter.   Inner-Iter.     Column Row Layer    Max.-Head-Change    Column Row Layer    Max.-Flux-Residual            L2-New               L2-Old           Solver-Max-Delh
          0                 1           3           197   82     1       0.2439525553E+00     197   82    1       0.5945968689E+03      0.3339800838E+04      0.3396495170E+03      0.2439525553E+00
          0                 2           2           197   82     1      -0.2107078676E-01     197   82    1      -0.5946712329E+02      0.3339884951E+03      0.3339800838E+04     -0.2107078676E-01

    ------------------------------------------------
       NWT REQUIRED            2 OUTER ITERATIONS 
       AND A TOTAL OF          5 INNER ITERATIONS.
    ------------------------------------------------

 NO OUTPUT CONTROL FOR STRESS PERIOD   69   TIME STEP    9

 WELLS WITH REDUCED PUMPING FOR STRESS PERIOD    69 TIME STEP     9
   LAY   ROW   COL         APPL.Q          ACT.Q        GW-HEAD       CELL-BOT
     1    77   213  -0.728135E+03  -0.501148E+03   0.155519E+03   0.148000E+03
     1    92    77  -0.728135E+03  -0.394919E+03  -0.802667E+02  -0.930000E+02
     1    94    77  -0.728135E+03  -0.208871E+03  -0.939991E+02  -0.102000E+03
     1    94    73  -0.728135E+03  -0.255927E+03  -0.659344E+02  -0.740000E+02


 SOLVING FOR HEAD 
                                                   Max.-Head-Change                        Max.-Flux-Residual
  Residual-Control   Outer-Iter.   Inner-Iter.     Column Row Layer    Max.-Head-Change    Column Row Layer    Max.-Flux-Residual            L2-New               L2-Old           Solver-Max-Delh
          0                 1           3           197   82     1       0.2400363203E+00     197   82    1       0.5850389999E+03      0.3286537947E+04      0.3339884951E+03      0.2400363203E+00
          0                 2           2           197   82     1      -0.2073251236E-01     197   82    1      -0.5851115044E+02      0.3286634331E+03      0.3286537947E+04     -0.2073251236E-01

    ------------------------------------------------
       NWT REQUIRED            2 OUTER ITERATIONS 
       AND A TOTAL OF          5 INNER ITERATIONS.
    ------------------------------------------------

 OUTPUT CONTROL FOR STRESS PERIOD   69   TIME STEP   10
    SAVE HEAD FOR ALL LAYERS

 WELLS WITH REDUCED PUMPING FOR STRESS PERIOD    69 TIME STEP    10
   LAY   ROW   COL         APPL.Q          ACT.Q        GW-HEAD       CELL-BOT
     1    77   213  -0.728135E+03  -0.507776E+03   0.155597E+03   0.148000E+03
     1    92    77  -0.728135E+03  -0.394070E+03  -0.802855E+02  -0.930000E+02
     1    94    77  -0.728135E+03  -0.211234E+03  -0.939457E+02  -0.102000E+03
     1    94    73  -0.728135E+03  -0.259126E+03  -0.658729E+02  -0.740000E+02


 HEAD WILL BE SAVED ON UNIT   51 AT END OF TIME STEP   10, STRESS PERIOD   69
1
  VOLUMETRIC BUDGET FOR ENTIRE MODEL AT END OF TIME STEP   10, STRESS PERIOD  69
  ------------------------------------------------------------------------------

     CUMULATIVE VOLUMES      L**3       RATES FOR THIS TIME STEP      L**3/T
     ------------------                 ------------------------

           IN:                                      IN:
           ---                                      ---
             STORAGE =   665658432.0000               STORAGE =      124238.0859
       CONSTANT HEAD =   106890856.0000         CONSTANT HEAD =       52142.6211
               WELLS =           0.0000                 WELLS =           0.0000
              DRAINS =           0.0000                DRAINS =           0.0000
                  ET =           0.0000                    ET =           0.0000
            RECHARGE =   391125888.0000              RECHARGE =      161886.5469

            TOTAL IN =  1163675136.0000              TOTAL IN =      338267.2500

          OUT:                                     OUT:
          ----                                     ----
             STORAGE =   213492768.0000               STORAGE =       57263.3281
       CONSTANT HEAD =           0.0000         CONSTANT HEAD =           0.0000
               WELLS =   620045696.0000                 WELLS =      145622.7188
              DRAINS =   233294864.0000                DRAINS =       97726.7812
                  ET =    95208240.0000                    ET =       37322.7617
            RECHARGE =      252575.6250              RECHARGE =           0.0000

           TOTAL OUT =  1162294016.0000             TOTAL OUT =      337935.5625

            IN - OUT =     1381120.0000              IN - OUT =         331.6875

 PERCENT DISCREPANCY =           0.12     PERCENT DISCREPANCY =           0.10






         TIME SUMMARY AT END OF TIME STEP   10 IN STRESS PERIOD   69
                    SECONDS     MINUTES      HOURS       DAYS        YEARS
                    -----------------------------------------------------------
   TIME STEP LENGTH 2.62656E+05  4377.6      72.960      3.0400     8.32307E-03
 STRESS PERIOD TIME 2.62656E+06  43776.      729.60      30.400     8.32307E-02
         TOTAL TIME 1.81234E+08 3.02056E+06  50343.      2097.6      5.7429    
1
1
                            STRESS PERIOD NO.   70, LENGTH =   30.40000    
                            -----------------------------------------------

                              NUMBER OF TIME STEPS =    10

                               MULTIPLIER FOR DELT =     1.000

                            INITIAL TIME STEP SIZE =   3.040000    

 WELL NO.  LAYER   ROW   COL   STRESS RATE         
 --------------------------------------------------
      1      1     69    225      -5962.    
      2      1     71    224       0.000    
      3      1     74    220       0.000    
      4      1     73    220       0.000    
      5      1     71    223       0.000    
      6      1     71    223       0.000    
      7      1     72    223       0.000    
      8      1     92    173       0.000    
      9      1     94    174       0.000    
     10      1     93    175       0.000    
     11      1    203    328       0.000    
     12      1    438    460      -2898.    
     13      1    436    461      -2898.    
     14      1    410    454      -2898.    
     15      1    433    460      -2898.    
     16      1    431    462      -2898.    
     17      1    417    459      -2898.    
     18      1    418    458      -2898.    
     19      1    414    455      -2898.    
     20      1    443    464      -2898.    
     21      1    379    425      -2898.    
     22      1    362    405      -2898.    
     23      1    361    405      -2898.    
     24      1    362    406      -2898.    
     25      1    363    408      -2898.    
     26      1    364    410      -2898.    
     27      1    369    418      -2898.    
     28      1    367    417      -2898.    
     29      1    365    415      -2898.    
     30      1    402    447      -2898.    
     31      1    400    446      -2898.    
     32      1    392    444      -2898.    
     33      1    391    441      -2898.    
     34      1    403    448      -2898.    
     35      1    405    447      -2898.    
     36      1    362    410      -2898.    
     37      1    362    411      -2898.    
     38      1    363    412      -2898.    
     39      1    375    421      -2898.    
     40      1    383    430      -2898.    
     41      1    397    445      -2898.    
     42      1    360    403      -2898.    
     43      1    350    401      -2898.    
     44      1    346    393      -3894.    
     45      1    333    387      -3894.    
     46      1    328    384      -3894.    
     47      1    326    383      -3894.    
     48      1    323    378      -3894.    
     49      1    321    378      -3894.    
     50      1    322    376      -3894.    
     51      1    316    374      -3894.    
     52      1    311    371      -3894.    
     53      1    307    369      -3894.    
     54      1    305    368      -3894.    
     55      1    303    368      -3894.    
     56      1    300    369      -3894.    
     57      1    293    364      -3894.    
     58      1    292    362      -3894.    
     59      1    278    350      -3894.    
     60      1    274    351      -3894.    
     61      1    273    350      -3894.    
     62      1    271    350      -3894.    
     63      1    267    348      -3894.    
     64      1    263    348      -3894.    
     65      1    263    348      -3894.    
     66      1    248    347      -3894.    
     67      1    243    342      -3894.    
     68      1    242    339      -3894.    
     69      1    238    341      -3894.    
     70      1    233    340      -3894.    
     71      1    232    340      -3894.    
     72      1    229    341      -3894.    
     73      1    227    341      -3894.    
     74      1    219    342      -3894.    
     75      1    219    336      -3894.    
     76      1    199    329      -3894.    
     77      1    191    332      -4993.    
     78      1    190    332      -4993.    
     79      1    130    310      -4993.    
     80      1    123    305      -4993.    
     81      1    104    289      -4993.    
     82      1     96    287      -4290.    
     83      1     95    284      -4290.    
     84      1     95    280      -4290.    
     85      1     93    276      -4290.    
     86      1     94    275      -4290.    
     87      1     90    277      -4290.    
     88      1     90    273      -4290.    
     89      1     86    271      -4290.    
     90      1     85    270      -4290.    
     91      1     84    265      -4290.    
     92      1     85    265      -4290.    
     93      1     84    264      -4290.    
     94      1     79    263      -4290.    
     95      1     79    263      -4290.    
     96      1     76    262      -4290.    
     97      1     73    257      -4290.    
     98      1     74    255      -4290.    
     99      1     71    255      -4290.    
    100      1     66    253      -4290.    
    101      1     68    252      -4290.    
    102      1     69    250      -4290.    
    103      1     65    248      -4290.    
    104      1     68    248      -4290.    
    105      1     69    247      -4290.    
    106      1     73    247      -4290.    
    107      1     64    246      -4290.    
    108      1     69    245      -4290.    
    109      1     72    245      -4290.    
    110      1     69    241      -4290.    
    111      1     73    238      -4290.    
    112      1     70    238      -4290.    
    113      1     76    263      -4290.    
    114      1     66    232      -2310.    
    115      1     69    229      -2310.    
    116      1     71    228      -2310.    
    117      1     69    227      -2310.    
    118      1     72    219      -2310.    
    119      1     72    218      -2310.    
    120      1     72    218      -2310.    
    121      1     73    217      -2310.    
    122      1     77    219      -2310.    
    123      1     78    219      -2310.    
    124      1     83    213      -2310.    
    125      1     77    213      -2310.    
    126      1     81    211      -2310.    
    127      1     81    210      -2310.    
    128      1     81    210      -2310.    
    129      1     82    208      -2310.    
    130      1     80    205      -2310.    
    131      1     86    202      -2310.    
    132      1     84    200      -2310.    
    133      1     89    200      -2310.    
    134      1     89    199      -2310.    
    135      1     88    199      -2310.    
    136      1     86    199      -2310.    
    137      1     85    199      -2310.    
    138      1     82    197      -2310.    
    139      1     86    197      -2310.    
    140      1     88    198      -2310.    
    141      1     90    192      -2310.    
    142      1     89    191      -2310.    
    143      1     84    192      -2310.    
    144      1     91    189      -2310.    
    145      1     92    185      -2310.    
    146      1     87    183      -2310.    
    147      1     92    182      -2310.    
    148      1     90    182      -2310.    
    149      1     88    179      -2310.    
    150      1     89    176      -2310.    
    151      1     92    172      -2310.    
    152      1     93    164      -2310.    
    153      1     94    162      -2310.    
    154      1    103    156      -2310.    
    155      1    103    156      -2310.    
    156      1     96    154      -2310.    
    157      1     97    153      -2310.    
    158      1    122    139      -2310.    
    159      1     92     77      -2310.    
    160      1     94     77      -2310.    
    161      1     94     73      -2310.    
    162      1     97    152      -2310.    
    163      1    118    337      -666.7    
    164      1    133    319      -2678.    
    165      1    131    320      -3951.    
    166      1    133    321      -2956.    
    167      1    161    329      -2141.    
    168      1    178    330      -551.0    
    169      1    163    330      -1122.    
    170      1    131    320      -2473.    
    171      1    129    315      -3937.    
    172      1    162    329      -1959.    
    173      1    131    311      -826.1    
    174      1    221    340      -1994.    
    175      1    220    340      -1034.    
    176      1    221    340      -667.7    
    177      1    137    322      -2082.    
    178      1    137    321      -1407.    
    179      1    185    329      -2012.    
    180      1    183    329      -1473.    
    181      1    175    329      -585.3    
    182      1     79    243      -1490.    
    183      1     77    245      -2414.    
    184      1    199    329      -1617.    
    185      1    198    330      -2514.    
    186      1    140    328      -972.1    
    187      1    143    327      -863.6    
    188      1    139    327      -1331.    

    188 WELLS

 REUSING NON-PARAMETER DRAINS FROM LAST STRESS PERIOD

   1061 DRAINS

 REUSING SURF FROM LAST STRESS PERIOD

 REUSING EVTR FROM LAST STRESS PERIOD

 REUSING EXDP FROM LAST STRESS PERIOD



                           RECHARGE
 READING ON UNIT   19 WITH FORMAT: (510E15.6)          

 SOLVING FOR HEAD 
                                                   Max.-Head-Change                        Max.-Flux-Residual
  Residual-Control   Outer-Iter.   Inner-Iter.     Column Row Layer    Max.-Head-Change    Column Row Layer    Max.-Flux-Residual            L2-New               L2-Old           Solver-Max-Delh
          0                 1           3           263   79     1      -0.1969438756E+02     348  263    1      -0.6598266418E+04      0.3287918623E+05      0.3286634331E+03     -0.1969438756E+02
          0                 2           2           263   79     1       0.1486538435E+01     238   70    1       0.7780934726E+03      0.3339341146E+04      0.3287918623E+05      0.1486538435E+01
          0                 3           2           263   79     1       0.7252108135E-01     238   70    1       0.3886319391E+02      0.1659987989E+03      0.3339341146E+04      0.7252108135E-01

    ------------------------------------------------
       NWT REQUIRED            3 OUTER ITERATIONS 
       AND A TOTAL OF          7 INNER ITERATIONS.
    ------------------------------------------------

 NO OUTPUT CONTROL FOR STRESS PERIOD   70   TIME STEP    1

 WELLS WITH REDUCED PUMPING FOR STRESS PERIOD    70 TIME STEP     1
   LAY   ROW   COL         APPL.Q          ACT.Q        GW-HEAD       CELL-BOT
     1    77   213  -0.230952E+04  -0.152877E+04   0.155297E+03   0.148000E+03
     1    92    77  -0.230952E+04  -0.821848E+03  -0.832942E+02  -0.930000E+02
     1    94    77  -0.230952E+04  -0.655003E+03  -0.940527E+02  -0.102000E+03
     1    94    73  -0.230952E+04  -0.799559E+03  -0.660086E+02  -0.740000E+02


 SOLVING FOR HEAD 
                                                   Max.-Head-Change                        Max.-Flux-Residual
  Residual-Control   Outer-Iter.   Inner-Iter.     Column Row Layer    Max.-Head-Change    Column Row Layer    Max.-Flux-Residual            L2-New               L2-Old           Solver-Max-Delh
          0                 1           3           263   79     1      -0.8554427607E+01     374  316    1      -0.2852610115E+04      0.1636133563E+05      0.1659987989E+03     -0.8554427607E+01
          0                 2           3           263   79     1       0.6801654529E+00     374  316    1       0.2850214540E+03      0.1624649196E+04      0.1636133563E+05      0.6801654529E+00
          0                 3           2           263   79     1       0.3348686606E-01     374  316    1       0.1424928010E+02      0.8114619184E+02      0.1624649196E+04      0.3348686606E-01

    ------------------------------------------------
       NWT REQUIRED            3 OUTER ITERATIONS 
       AND A TOTAL OF          8 INNER ITERATIONS.
    ------------------------------------------------

 NO OUTPUT CONTROL FOR STRESS PERIOD   70   TIME STEP    2

 WELLS WITH REDUCED PUMPING FOR STRESS PERIOD    70 TIME STEP     2
   LAY   ROW   COL         APPL.Q          ACT.Q        GW-HEAD       CELL-BOT
     1    77   213  -0.230952E+04  -0.145343E+04   0.155026E+03   0.148000E+03
     1    92    77  -0.230952E+04  -0.623173E+03  -0.847756E+02  -0.930000E+02
     1    94    77  -0.230952E+04  -0.640849E+03  -0.941544E+02  -0.102000E+03
     1    94    73  -0.230952E+04  -0.778655E+03  -0.661362E+02  -0.740000E+02


 SOLVING FOR HEAD 
                                                   Max.-Head-Change                        Max.-Flux-Residual
  Residual-Control   Outer-Iter.   Inner-Iter.     Column Row Layer    Max.-Head-Change    Column Row Layer    Max.-Flux-Residual            L2-New               L2-Old           Solver-Max-Delh
          0                 1           3           263   79     1      -0.4082001246E+01     374  316    1      -0.2559326141E+04      0.1300127128E+05      0.8114619184E+02     -0.4082001246E+01
          0                 2           2           263   79     1       0.3357682026E+00     374  316    1       0.2557003289E+03      0.1299365212E+04      0.1300127128E+05      0.3357682026E+00
          0                 3           2           263   79     1       0.1663336005E-01     374  316    1       0.1278328354E+02      0.6493993978E+02      0.1299365212E+04      0.1663336005E-01

    ------------------------------------------------
       NWT REQUIRED            3 OUTER ITERATIONS 
       AND A TOTAL OF          7 INNER ITERATIONS.
    ------------------------------------------------

 NO OUTPUT CONTROL FOR STRESS PERIOD   70   TIME STEP    3

 WELLS WITH REDUCED PUMPING FOR STRESS PERIOD    70 TIME STEP     3
   LAY   ROW   COL         APPL.Q          ACT.Q        GW-HEAD       CELL-BOT
     1    77   213  -0.230952E+04  -0.138459E+04   0.154782E+03   0.148000E+03
     1    92    77  -0.230952E+04  -0.528458E+03  -0.855261E+02  -0.930000E+02
     1    94    77  -0.230952E+04  -0.627488E+03  -0.942510E+02  -0.102000E+03
     1    94    73  -0.230952E+04  -0.759096E+03  -0.662563E+02  -0.740000E+02


 SOLVING FOR HEAD 
                                                   Max.-Head-Change                        Max.-Flux-Residual
  Residual-Control   Outer-Iter.   Inner-Iter.     Column Row Layer    Max.-Head-Change    Column Row Layer    Max.-Flux-Residual            L2-New               L2-Old           Solver-Max-Delh
          0                 1           3           263   79     1      -0.2183790021E+01     374  316    1      -0.2302332498E+04      0.1138577070E+05      0.6493993978E+02     -0.2183790021E+01
          0                 2           2           263   79     1       0.1831953514E+00     374  316    1       0.2300161648E+03      0.1137027934E+04      0.1138577070E+05      0.1831953514E+00
          0                 3           2           263   79     1       0.9108333016E-02     374  316    1       0.1149919202E+02      0.5685005680E+02      0.1137027934E+04      0.9108333016E-02

    ------------------------------------------------
       NWT REQUIRED            3 OUTER ITERATIONS 
       AND A TOTAL OF          7 INNER ITERATIONS.
    ------------------------------------------------

 NO OUTPUT CONTROL FOR STRESS PERIOD   70   TIME STEP    4

 WELLS WITH REDUCED PUMPING FOR STRESS PERIOD    70 TIME STEP     4
   LAY   ROW   COL         APPL.Q          ACT.Q        GW-HEAD       CELL-BOT
     1    77   213  -0.230952E+04  -0.132207E+04   0.154563E+03   0.148000E+03
     1    92    77  -0.230952E+04  -0.481523E+03  -0.859134E+02  -0.930000E+02
     1    94    77  -0.230952E+04  -0.614868E+03  -0.943427E+02  -0.102000E+03
     1    94    73  -0.230952E+04  -0.740789E+03  -0.663694E+02  -0.740000E+02


 SOLVING FOR HEAD 
                                                   Max.-Head-Change                        Max.-Flux-Residual
  Residual-Control   Outer-Iter.   Inner-Iter.     Column Row Layer    Max.-Head-Change    Column Row Layer    Max.-Flux-Residual            L2-New               L2-Old           Solver-Max-Delh
          0                 1           3           263   79     1      -0.1322930130E+01     378  321    1      -0.2079133893E+04      0.1040683996E+05      0.5685005680E+02     -0.1322930130E+01
          0                 2           2           263   79     1       0.1122140516E+00     378  321    1       0.2077086698E+03      0.1040080003E+04      0.1040683996E+05      0.1122140516E+00
          0                 3           2           457  453     1       0.8518819997E-02     378  321    1       0.1038390245E+02      0.5199619061E+02      0.1040080003E+04      0.8518819997E-02

    ------------------------------------------------
       NWT REQUIRED            3 OUTER ITERATIONS 
       AND A TOTAL OF          7 INNER ITERATIONS.
    ------------------------------------------------

 NO OUTPUT CONTROL FOR STRESS PERIOD   70   TIME STEP    5

 WELLS WITH REDUCED PUMPING FOR STRESS PERIOD    70 TIME STEP     5
   LAY   ROW   COL         APPL.Q          ACT.Q        GW-HEAD       CELL-BOT
     1    77   213  -0.230952E+04  -0.126554E+04   0.154367E+03   0.148000E+03
     1    92    77  -0.230952E+04  -0.457630E+03  -0.861153E+02  -0.930000E+02
     1    94    77  -0.230952E+04  -0.602945E+03  -0.944298E+02  -0.102000E+03
     1    94    73  -0.230952E+04  -0.723646E+03  -0.664759E+02  -0.740000E+02


 SOLVING FOR HEAD 
                                                   Max.-Head-Change                        Max.-Flux-Residual
  Residual-Control   Outer-Iter.   Inner-Iter.     Column Row Layer    Max.-Head-Change    Column Row Layer    Max.-Flux-Residual            L2-New               L2-Old           Solver-Max-Delh
          0                 1           3           264   78     1      -0.9731449977E+00     378  321    1      -0.1905924937E+04      0.9740219422E+04      0.5199619061E+02     -0.9731449977E+00
          0                 2           2           264   78     1       0.8275047356E-01     378  321    1       0.1903972217E+03      0.9779074898E+03      0.9740219422E+04      0.8275047356E-01

    ------------------------------------------------
       NWT REQUIRED            2 OUTER ITERATIONS 
       AND A TOTAL OF          5 INNER ITERATIONS.
    ------------------------------------------------

 NO OUTPUT CONTROL FOR STRESS PERIOD   70   TIME STEP    6

 WELLS WITH REDUCED PUMPING FOR STRESS PERIOD    70 TIME STEP     6
   LAY   ROW   COL         APPL.Q          ACT.Q        GW-HEAD       CELL-BOT
     1    77   213  -0.230952E+04  -0.121434E+04   0.154190E+03   0.148000E+03
     1    92    77  -0.230952E+04  -0.445221E+03  -0.862216E+02  -0.930000E+02
     1    94    77  -0.230952E+04  -0.591621E+03  -0.945131E+02  -0.102000E+03
     1    94    73  -0.230952E+04  -0.707511E+03  -0.665767E+02  -0.740000E+02


 SOLVING FOR HEAD 
                                                   Max.-Head-Change                        Max.-Flux-Residual
  Residual-Control   Outer-Iter.   Inner-Iter.     Column Row Layer    Max.-Head-Change    Column Row Layer    Max.-Flux-Residual            L2-New               L2-Old           Solver-Max-Delh
          0                 1           3           264   78     1      -0.8360247171E+00     378  321    1      -0.1751977680E+04      0.9251748163E+04      0.4889053099E+02     -0.8360247171E+00
          0                 2           2           264   78     1       0.7111280601E-01     378  321    1       0.1750147119E+03      0.9252045099E+03      0.9251748163E+04      0.7111280601E-01

    ------------------------------------------------
       NWT REQUIRED            2 OUTER ITERATIONS 
       AND A TOTAL OF          5 INNER ITERATIONS.
    ------------------------------------------------

 NO OUTPUT CONTROL FOR STRESS PERIOD   70   TIME STEP    7

 WELLS WITH REDUCED PUMPING FOR STRESS PERIOD    70 TIME STEP     7
   LAY   ROW   COL         APPL.Q          ACT.Q        GW-HEAD       CELL-BOT
     1    77   213  -0.230952E+04  -0.116832E+04   0.154030E+03   0.148000E+03
     1    92    77  -0.230952E+04  -0.438787E+03  -0.862771E+02  -0.930000E+02
     1    94    77  -0.230952E+04  -0.580917E+03  -0.945922E+02  -0.102000E+03
     1    94    73  -0.230952E+04  -0.692395E+03  -0.666716E+02  -0.740000E+02


 SOLVING FOR HEAD 
                                                   Max.-Head-Change                        Max.-Flux-Residual
  Residual-Control   Outer-Iter.   Inner-Iter.     Column Row Layer    Max.-Head-Change    Column Row Layer    Max.-Flux-Residual            L2-New               L2-Old           Solver-Max-Delh
          0                 1           3           343  217     1      -0.7369849976E+00     378  321    1      -0.1615479615E+04      0.8879768525E+04      0.4625656874E+02     -0.7369849976E+00
          0                 2           2           343  217     1       0.6316763906E-01     378  321    1       0.1613782663E+03      0.8876746595E+03      0.8879768525E+04      0.6316763906E-01

    ------------------------------------------------
       NWT REQUIRED            2 OUTER ITERATIONS 
       AND A TOTAL OF          5 INNER ITERATIONS.
    ------------------------------------------------

 NO OUTPUT CONTROL FOR STRESS PERIOD   70   TIME STEP    8

 WELLS WITH REDUCED PUMPING FOR STRESS PERIOD    70 TIME STEP     8
   LAY   ROW   COL         APPL.Q          ACT.Q        GW-HEAD       CELL-BOT
     1    77   213  -0.230952E+04  -0.112701E+04   0.153888E+03   0.148000E+03
     1    92    77  -0.230952E+04  -0.435448E+03  -0.863060E+02  -0.930000E+02
     1    94    77  -0.230952E+04  -0.570792E+03  -0.946674E+02  -0.102000E+03
     1    94    73  -0.230952E+04  -0.678228E+03  -0.667611E+02  -0.740000E+02


 SOLVING FOR HEAD 
                                                   Max.-Head-Change                        Max.-Flux-Residual
  Residual-Control   Outer-Iter.   Inner-Iter.     Column Row Layer    Max.-Head-Change    Column Row Layer    Max.-Flux-Residual            L2-New               L2-Old           Solver-Max-Delh
          0                 1           3           343  217     1      -0.6919104507E+00     378  321    1      -0.1494118592E+04      0.8586739650E+04      0.4438097477E+02     -0.6919104507E+00
          0                 2           2           343  217     1       0.5931924763E-01     378  321    1       0.1492557082E+03      0.8590074915E+03      0.8586739650E+04      0.5931924763E-01

    ------------------------------------------------
       NWT REQUIRED            2 OUTER ITERATIONS 
       AND A TOTAL OF          5 INNER ITERATIONS.
    ------------------------------------------------

 NO OUTPUT CONTROL FOR STRESS PERIOD   70   TIME STEP    9

 WELLS WITH REDUCED PUMPING FOR STRESS PERIOD    70 TIME STEP     9
   LAY   ROW   COL         APPL.Q          ACT.Q        GW-HEAD       CELL-BOT
     1    77   213  -0.230952E+04  -0.108996E+04   0.153760E+03   0.148000E+03
     1    92    77  -0.230952E+04  -0.433724E+03  -0.863210E+02  -0.930000E+02
     1    94    77  -0.230952E+04  -0.561213E+03  -0.947390E+02  -0.102000E+03
     1    94    73  -0.230952E+04  -0.664944E+03  -0.668454E+02  -0.740000E+02


 SOLVING FOR HEAD 
                                                   Max.-Head-Change                        Max.-Flux-Residual
  Residual-Control   Outer-Iter.   Inner-Iter.     Column Row Layer    Max.-Head-Change    Column Row Layer    Max.-Flux-Residual            L2-New               L2-Old           Solver-Max-Delh
          0                 1           3           343  217     1      -0.6459148764E+00     378  321    1      -0.1385927550E+04      0.8349974750E+04      0.4294965482E+02     -0.6459148764E+00
          0                 2           2           343  217     1       0.5539645748E-01     378  321    1       0.1384497677E+03      0.8347787403E+03      0.8349974750E+04      0.5539645748E-01

    ------------------------------------------------
       NWT REQUIRED            2 OUTER ITERATIONS 
       AND A TOTAL OF          5 INNER ITERATIONS.
    ------------------------------------------------

 OUTPUT CONTROL FOR STRESS PERIOD   70   TIME STEP   10
    SAVE HEAD FOR ALL LAYERS

 WELLS WITH REDUCED PUMPING FOR STRESS PERIOD    70 TIME STEP    10
   LAY   ROW   COL         APPL.Q          ACT.Q        GW-HEAD       CELL-BOT
     1    77   213  -0.230952E+04  -0.105676E+04   0.153645E+03   0.148000E+03
     1    92    77  -0.230952E+04  -0.432846E+03  -0.863286E+02  -0.930000E+02
     1    94    77  -0.230952E+04  -0.552147E+03  -0.948070E+02  -0.102000E+03
     1    94    73  -0.230952E+04  -0.652483E+03  -0.669249E+02  -0.740000E+02


 HEAD WILL BE SAVED ON UNIT   51 AT END OF TIME STEP   10, STRESS PERIOD   70
1
  VOLUMETRIC BUDGET FOR ENTIRE MODEL AT END OF TIME STEP   10, STRESS PERIOD  70
  ------------------------------------------------------------------------------

     CUMULATIVE VOLUMES      L**3       RATES FOR THIS TIME STEP      L**3/T
     ------------------                 ------------------------

           IN:                                      IN:
           ---                                      ---
             STORAGE =   678209920.0000               STORAGE =      404224.6250
       CONSTANT HEAD =   108476040.0000         CONSTANT HEAD =       52145.7578
               WELLS =           0.0000                 WELLS =           0.0000
              DRAINS =           0.0000                DRAINS =           0.0000
                  ET =           0.0000                    ET =           0.0000
            RECHARGE =   395673088.0000              RECHARGE =      149581.0469

            TOTAL IN =  1182359040.0000              TOTAL IN =      605951.4375

          OUT:                                     OUT:
          ----                                     ----
             STORAGE =   213931584.0000               STORAGE =       10226.2178
       CONSTANT HEAD =           0.0000         CONSTANT HEAD =           0.0000
               WELLS =   634363328.0000                 WELLS =      470580.2500
              DRAINS =   236106848.0000                DRAINS =       88843.7188
                  ET =    96292088.0000                    ET =       34336.1875
            RECHARGE =      252575.6250              RECHARGE =           0.0000

           TOTAL OUT =  1180946432.0000             TOTAL OUT =      603986.3750

            IN - OUT =     1412608.0000              IN - OUT =        1965.0625

 PERCENT DISCREPANCY =           0.12     PERCENT DISCREPANCY =           0.32






         TIME SUMMARY AT END OF TIME STEP   10 IN STRESS PERIOD   70
                    SECONDS     MINUTES      HOURS       DAYS        YEARS
                    -----------------------------------------------------------
   TIME STEP LENGTH 2.62656E+05  4377.6      72.960      3.0400     8.32307E-03
 STRESS PERIOD TIME 2.62656E+06  43776.      729.60      30.400     8.32307E-02
         TOTAL TIME 1.83860E+08 3.06434E+06  51072.      2128.0      5.8262    
1
1
                            STRESS PERIOD NO.   71, LENGTH =   30.40000    
                            -----------------------------------------------

                              NUMBER OF TIME STEPS =    10

                               MULTIPLIER FOR DELT =     1.000

                            INITIAL TIME STEP SIZE =   3.040000    

 WELL NO.  LAYER   ROW   COL   STRESS RATE         
 --------------------------------------------------
      1      1     69    225      -6048.    
      2      1     71    224       0.000    
      3      1     74    220       0.000    
      4      1     73    220       0.000    
      5      1     71    223       0.000    
      6      1     71    223       0.000    
      7      1     72    223       0.000    
      8      1     92    173       0.000    
      9      1     94    174       0.000    
     10      1     93    175       0.000    
     11      1    203    328       0.000    
     12      1    438    460      -2623.    
     13      1    436    461      -2623.    
     14      1    410    454      -2623.    
     15      1    433    460      -2623.    
     16      1    431    462      -2623.    
     17      1    417    459      -2623.    
     18      1    418    458      -2623.    
     19      1    414    455      -2623.    
     20      1    443    464      -2623.    
     21      1    379    425      -2623.    
     22      1    362    405      -2623.    
     23      1    361    405      -2623.    
     24      1    362    406      -2623.    
     25      1    363    408      -2623.    
     26      1    364    410      -2623.    
     27      1    369    418      -2623.    
     28      1    367    417      -2623.    
     29      1    365    415      -2623.    
     30      1    402    447      -2623.    
     31      1    400    446      -2623.    
     32      1    392    444      -2623.    
     33      1    391    441      -2623.    
     34      1    403    448      -2623.    
     35      1    405    447      -2623.    
     36      1    362    410      -2623.    
     37      1    362    411      -2623.    
     38      1    363    412      -2623.    
     39      1    375    421      -2623.    
     40      1    383    430      -2623.    
     41      1    397    445      -2623.    
     42      1    360    403      -2623.    
     43      1    350    401      -2623.    
     44      1    346    393      -3882.    
     45      1    333    387      -3882.    
     46      1    328    384      -3882.    
     47      1    326    383      -3882.    
     48      1    323    378      -3882.    
     49      1    321    378      -3882.    
     50      1    322    376      -3882.    
     51      1    316    374      -3882.    
     52      1    311    371      -3882.    
     53      1    307    369      -3882.    
     54      1    305    368      -3882.    
     55      1    303    368      -3882.    
     56      1    300    369      -3882.    
     57      1    293    364      -3882.    
     58      1    292    362      -3882.    
     59      1    278    350      -3882.    
     60      1    274    351      -3882.    
     61      1    273    350      -3882.    
     62      1    271    350      -3882.    
     63      1    267    348      -3882.    
     64      1    263    348      -3882.    
     65      1    263    348      -3882.    
     66      1    248    347      -3882.    
     67      1    243    342      -3882.    
     68      1    242    339      -3882.    
     69      1    238    341      -3882.    
     70      1    233    340      -3882.    
     71      1    232    340      -3882.    
     72      1    229    341      -3882.    
     73      1    227    341      -3882.    
     74      1    219    342      -3882.    
     75      1    219    336      -3882.    
     76      1    199    329      -3882.    
     77      1    191    332      -4532.    
     78      1    190    332      -4532.    
     79      1    130    310      -4532.    
     80      1    123    305      -4532.    
     81      1    104    289      -4532.    
     82      1     96    287      -3788.    
     83      1     95    284      -3788.    
     84      1     95    280      -3788.    
     85      1     93    276      -3788.    
     86      1     94    275      -3788.    
     87      1     90    277      -3788.    
     88      1     90    273      -3788.    
     89      1     86    271      -3788.    
     90      1     85    270      -3788.    
     91      1     84    265      -3788.    
     92      1     85    265      -3788.    
     93      1     84    264      -3788.    
     94      1     79    263      -3788.    
     95      1     79    263      -3788.    
     96      1     76    262      -3788.    
     97      1     73    257      -3788.    
     98      1     74    255      -3788.    
     99      1     71    255      -3788.    
    100      1     66    253      -3788.    
    101      1     68    252      -3788.    
    102      1     69    250      -3788.    
    103      1     65    248      -3788.    
    104      1     68    248      -3788.    
    105      1     69    247      -3788.    
    106      1     73    247      -3788.    
    107      1     64    246      -3788.    
    108      1     69    245      -3788.    
    109      1     72    245      -3788.    
    110      1     69    241      -3788.    
    111      1     73    238      -3788.    
    112      1     70    238      -3788.    
    113      1     76    263      -3788.    
    114      1     66    232      -2343.    
    115      1     69    229      -2343.    
    116      1     71    228      -2343.    
    117      1     69    227      -2343.    
    118      1     72    219      -2343.    
    119      1     72    218      -2343.    
    120      1     72    218      -2343.    
    121      1     73    217      -2343.    
    122      1     77    219      -2343.    
    123      1     78    219      -2343.    
    124      1     83    213      -2343.    
    125      1     77    213      -2343.    
    126      1     81    211      -2343.    
    127      1     81    210      -2343.    
    128      1     81    210      -2343.    
    129      1     82    208      -2343.    
    130      1     80    205      -2343.    
    131      1     86    202      -2343.    
    132      1     84    200      -2343.    
    133      1     89    200      -2343.    
    134      1     89    199      -2343.    
    135      1     88    199      -2343.    
    136      1     86    199      -2343.    
    137      1     85    199      -2343.    
    138      1     82    197      -2343.    
    139      1     86    197      -2343.    
    140      1     88    198      -2343.    
    141      1     90    192      -2343.    
    142      1     89    191      -2343.    
    143      1     84    192      -2343.    
    144      1     91    189      -2343.    
    145      1     92    185      -2343.    
    146      1     87    183      -2343.    
    147      1     92    182      -2343.    
    148      1     90    182      -2343.    
    149      1     88    179      -2343.    
    150      1     89    176      -2343.    
    151      1     92    172      -2343.    
    152      1     93    164      -2343.    
    153      1     94    162      -2343.    
    154      1    103    156      -2343.    
    155      1    103    156      -2343.    
    156      1     96    154      -2343.    
    157      1     97    153      -2343.    
    158      1    122    139      -2343.    
    159      1     92     77      -2343.    
    160      1     94     77      -2343.    
    161      1     94     73      -2343.    
    162      1     97    152      -2343.    
    163      1    118    337      -666.7    
    164      1    133    319      -2678.    
    165      1    131    320      -3951.    
    166      1    133    321      -2956.    
    167      1    161    329      -2141.    
    168      1    178    330      -551.0    
    169      1    163    330      -1122.    
    170      1    131    320      -2473.    
    171      1    129    315      -3937.    
    172      1    162    329      -1959.    
    173      1    131    311      -826.1    
    174      1    221    340      -1994.    
    175      1    220    340      -1034.    
    176      1    221    340      -667.7    
    177      1    137    322      -2082.    
    178      1    137    321      -1407.    
    179      1    185    329      -2012.    
    180      1    183    329      -1473.    
    181      1    175    329      -585.3    
    182      1     79    243      -1490.    
    183      1     77    245      -2414.    
    184      1    199    329      -1617.    
    185      1    198    330      -2514.    
    186      1    140    328      -972.1    
    187      1    143    327      -863.6    
    188      1    139    327      -1331.    

    188 WELLS

 REUSING NON-PARAMETER DRAINS FROM LAST STRESS PERIOD

   1061 DRAINS

 REUSING SURF FROM LAST STRESS PERIOD

 REUSING EVTR FROM LAST STRESS PERIOD

 REUSING EXDP FROM LAST STRESS PERIOD



                           RECHARGE
 READING ON UNIT   19 WITH FORMAT: (510E15.6)          

 SOLVING FOR HEAD 
                                                   Max.-Head-Change                        Max.-Flux-Residual
  Residual-Control   Outer-Iter.   Inner-Iter.     Column Row Layer    Max.-Head-Change    Column Row Layer    Max.-Flux-Residual            L2-New               L2-Old           Solver-Max-Delh
          0                 1           3           263   79     1       0.2872703159E+01     378  321    1      -0.1281297790E+04      0.1136111850E+05      0.4173718110E+02      0.2872703159E+01
          0                 2           2           263   79     1      -0.2491638177E+00     378  321    1       0.1280003866E+03      0.1132897108E+04      0.1136111850E+05     -0.2491638177E+00
          0                 3           2           263   79     1      -0.1246936064E-01     378  321    1       0.6399052102E+01      0.5661718291E+02      0.1132897108E+04     -0.1246936064E-01

    ------------------------------------------------
       NWT REQUIRED            3 OUTER ITERATIONS 
       AND A TOTAL OF          7 INNER ITERATIONS.
    ------------------------------------------------

 NO OUTPUT CONTROL FOR STRESS PERIOD   71   TIME STEP    1

 WELLS WITH REDUCED PUMPING FOR STRESS PERIOD    71 TIME STEP     1
   LAY   ROW   COL         APPL.Q          ACT.Q        GW-HEAD       CELL-BOT
     1    77   213  -0.234339E+04  -0.104076E+04   0.153537E+03   0.148000E+03
     1    92    77  -0.234339E+04  -0.436039E+03  -0.863556E+02  -0.930000E+02
     1    94    77  -0.234339E+04  -0.551209E+03  -0.948742E+02  -0.102000E+03
     1    94    73  -0.234339E+04  -0.649736E+03  -0.670028E+02  -0.740000E+02


 SOLVING FOR HEAD 
                                                   Max.-Head-Change                        Max.-Flux-Residual
  Residual-Control   Outer-Iter.   Inner-Iter.     Column Row Layer    Max.-Head-Change    Column Row Layer    Max.-Flux-Residual            L2-New               L2-Old           Solver-Max-Delh
          0                 1           3           263   79     1       0.1083076216E+01     378  321    1      -0.1195963834E+04      0.1012867970E+05      0.5661718291E+02      0.1083076216E+01
          0                 2           2           263   79     1      -0.9338311448E-01     378  321    1       0.1194784740E+03      0.1012197825E+04      0.1012867970E+05     -0.9338311448E-01

    ------------------------------------------------
       NWT REQUIRED            2 OUTER ITERATIONS 
       AND A TOTAL OF          5 INNER ITERATIONS.
    ------------------------------------------------

 NO OUTPUT CONTROL FOR STRESS PERIOD   71   TIME STEP    2

 WELLS WITH REDUCED PUMPING FOR STRESS PERIOD    71 TIME STEP     2
   LAY   ROW   COL         APPL.Q          ACT.Q        GW-HEAD       CELL-BOT
     1    77   213  -0.234339E+04  -0.101244E+04   0.153440E+03   0.148000E+03
     1    92    77  -0.234339E+04  -0.434405E+03  -0.863697E+02  -0.930000E+02
     1    94    77  -0.234339E+04  -0.542617E+03  -0.949384E+02  -0.102000E+03
     1    94    73  -0.234339E+04  -0.638127E+03  -0.670765E+02  -0.740000E+02


 SOLVING FOR HEAD 
                                                   Max.-Head-Change                        Max.-Flux-Residual
  Residual-Control   Outer-Iter.   Inner-Iter.     Column Row Layer    Max.-Head-Change    Column Row Layer    Max.-Flux-Residual            L2-New               L2-Old           Solver-Max-Delh
          0                 1           3           343  217     1      -0.5136721166E+00     378  321    1      -0.1118898206E+04      0.9706571559E+04      0.5060111233E+02     -0.5136721166E+00
          0                 2           2           343  217     1       0.4411171493E-01     378  321    1       0.1117825331E+03      0.9700433435E+03      0.9706571559E+04      0.4411171493E-01

    ------------------------------------------------
       NWT REQUIRED            2 OUTER ITERATIONS 
       AND A TOTAL OF          5 INNER ITERATIONS.
    ------------------------------------------------

 NO OUTPUT CONTROL FOR STRESS PERIOD   71   TIME STEP    3

 WELLS WITH REDUCED PUMPING FOR STRESS PERIOD    71 TIME STEP     3
   LAY   ROW   COL         APPL.Q          ACT.Q        GW-HEAD       CELL-BOT
     1    77   213  -0.234339E+04  -0.987100E+03   0.153353E+03   0.148000E+03
     1    92    77  -0.234339E+04  -0.433580E+03  -0.863768E+02  -0.930000E+02
     1    94    77  -0.234339E+04  -0.534481E+03  -0.949995E+02  -0.102000E+03
     1    94    73  -0.234339E+04  -0.627234E+03  -0.671460E+02  -0.740000E+02


 SOLVING FOR HEAD 
                                                   Max.-Head-Change                        Max.-Flux-Residual
  Residual-Control   Outer-Iter.   Inner-Iter.     Column Row Layer    Max.-Head-Change    Column Row Layer    Max.-Flux-Residual            L2-New               L2-Old           Solver-Max-Delh
          0                 1           3           343  217     1      -0.4765436344E+00     378  321    1      -0.1049518879E+04      0.9431556400E+04      0.4849742556E+02     -0.4765436344E+00
          0                 2           2           343  217     1       0.4094035326E-01     378  321    1       0.1048543071E+03      0.9427464242E+03      0.9431556400E+04      0.4094035326E-01

    ------------------------------------------------
       NWT REQUIRED            2 OUTER ITERATIONS 
       AND A TOTAL OF          5 INNER ITERATIONS.
    ------------------------------------------------

 NO OUTPUT CONTROL FOR STRESS PERIOD   71   TIME STEP    4

 WELLS WITH REDUCED PUMPING FOR STRESS PERIOD    71 TIME STEP     4
   LAY   ROW   COL         APPL.Q          ACT.Q        GW-HEAD       CELL-BOT
     1    77   213  -0.234339E+04  -0.964420E+03   0.153275E+03   0.148000E+03
     1    92    77  -0.234339E+04  -0.433175E+03  -0.863803E+02  -0.930000E+02
     1    94    77  -0.234339E+04  -0.526776E+03  -0.950576E+02  -0.102000E+03
     1    94    73  -0.234339E+04  -0.617008E+03  -0.672117E+02  -0.740000E+02


 SOLVING FOR HEAD 
                                                   Max.-Head-Change                        Max.-Flux-Residual
  Residual-Control   Outer-Iter.   Inner-Iter.     Column Row Layer    Max.-Head-Change    Column Row Layer    Max.-Flux-Residual            L2-New               L2-Old           Solver-Max-Delh
          0                 1           3           343  217     1      -0.4425248976E+00     378  321    1      -0.9869050934E+03      0.9222166445E+04      0.4713880561E+02     -0.4425248976E+00
          0                 2           2           343  217     1       0.3814091805E-01     378  321    1       0.9860180834E+02      0.9219977157E+03      0.9222166445E+04      0.3814091805E-01

    ------------------------------------------------
       NWT REQUIRED            2 OUTER ITERATIONS 
       AND A TOTAL OF          5 INNER ITERATIONS.
    ------------------------------------------------

 NO OUTPUT CONTROL FOR STRESS PERIOD   71   TIME STEP    5

 WELLS WITH REDUCED PUMPING FOR STRESS PERIOD    71 TIME STEP     5
   LAY   ROW   COL         APPL.Q          ACT.Q        GW-HEAD       CELL-BOT
     1    77   213  -0.234339E+04  -0.944112E+03   0.153204E+03   0.148000E+03
     1    92    77  -0.234339E+04  -0.432991E+03  -0.863819E+02  -0.930000E+02
     1    94    77  -0.234339E+04  -0.519474E+03  -0.951130E+02  -0.102000E+03
     1    94    73  -0.234339E+04  -0.607404E+03  -0.672735E+02  -0.740000E+02


 SOLVING FOR HEAD 
                                                   Max.-Head-Change                        Max.-Flux-Residual
  Residual-Control   Outer-Iter.   Inner-Iter.     Column Row Layer    Max.-Head-Change    Column Row Layer    Max.-Flux-Residual            L2-New               L2-Old           Solver-Max-Delh
          0                 1           3           343  217     1      -0.4110347607E+00     378  321    1      -0.9302704447E+03      0.9050344787E+04      0.4609742056E+02     -0.4110347607E+00
          0                 2           2           343  217     1       0.3533781189E-01     378  321    1       0.9294636662E+02      0.9047616588E+03      0.9050344787E+04      0.3533781189E-01

    ------------------------------------------------
       NWT REQUIRED            2 OUTER ITERATIONS 
       AND A TOTAL OF          5 INNER ITERATIONS.
    ------------------------------------------------

 NO OUTPUT CONTROL FOR STRESS PERIOD   71   TIME STEP    6

 WELLS WITH REDUCED PUMPING FOR STRESS PERIOD    71 TIME STEP     6
   LAY   ROW   COL         APPL.Q          ACT.Q        GW-HEAD       CELL-BOT
     1    77   213  -0.234339E+04  -0.925919E+03   0.153141E+03   0.148000E+03
     1    92    77  -0.234339E+04  -0.432920E+03  -0.863825E+02  -0.930000E+02
     1    94    77  -0.234339E+04  -0.512554E+03  -0.951657E+02  -0.102000E+03
     1    94    73  -0.234339E+04  -0.598381E+03  -0.673320E+02  -0.740000E+02


 SOLVING FOR HEAD 
                                                   Max.-Head-Change                        Max.-Flux-Residual
  Residual-Control   Outer-Iter.   Inner-Iter.     Column Row Layer    Max.-Head-Change    Column Row Layer    Max.-Flux-Residual            L2-New               L2-Old           Solver-Max-Delh
          0                 1           3           343  217     1      -0.3823249501E+00     378  321    1      -0.8789519813E+03      0.8903110458E+04      0.4523604874E+02     -0.3823249501E+00
          0                 2           2           343  217     1       0.3288353156E-01     378  321    1       0.8782177480E+02      0.8902887294E+03      0.8903110458E+04      0.3288353156E-01

    ------------------------------------------------
       NWT REQUIRED            2 OUTER ITERATIONS 
       AND A TOTAL OF          5 INNER ITERATIONS.
    ------------------------------------------------

 NO OUTPUT CONTROL FOR STRESS PERIOD   71   TIME STEP    7

 WELLS WITH REDUCED PUMPING FOR STRESS PERIOD    71 TIME STEP     7
   LAY   ROW   COL         APPL.Q          ACT.Q        GW-HEAD       CELL-BOT
     1    77   213  -0.234339E+04  -0.909611E+03   0.153085E+03   0.148000E+03
     1    92    77  -0.234339E+04  -0.432908E+03  -0.863826E+02  -0.930000E+02
     1    94    77  -0.234339E+04  -0.505991E+03  -0.952158E+02  -0.102000E+03
     1    94    73  -0.234339E+04  -0.589898E+03  -0.673871E+02  -0.740000E+02


 SOLVING FOR HEAD 
                                                   Max.-Head-Change                        Max.-Flux-Residual
  Residual-Control   Outer-Iter.   Inner-Iter.     Column Row Layer    Max.-Head-Change    Column Row Layer    Max.-Flux-Residual            L2-New               L2-Old           Solver-Max-Delh
          0                 1           3           343  217     1      -0.3560594024E+00     378  321    1      -0.8323653562E+03      0.8773490684E+04      0.4451267135E+02     -0.3560594024E+00
          0                 2           2           343  217     1       0.3063359469E-01     378  321    1       0.8316966408E+02      0.8771301695E+03      0.8773490684E+04      0.3063359469E-01

    ------------------------------------------------
       NWT REQUIRED            2 OUTER ITERATIONS 
       AND A TOTAL OF          5 INNER ITERATIONS.
    ------------------------------------------------

 NO OUTPUT CONTROL FOR STRESS PERIOD   71   TIME STEP    8

 WELLS WITH REDUCED PUMPING FOR STRESS PERIOD    71 TIME STEP     8
   LAY   ROW   COL         APPL.Q          ACT.Q        GW-HEAD       CELL-BOT
     1    77   213  -0.234339E+04  -0.894985E+03   0.153034E+03   0.148000E+03
     1    92    77  -0.234339E+04  -0.432927E+03  -0.863824E+02  -0.930000E+02
     1    94    77  -0.234339E+04  -0.499765E+03  -0.952636E+02  -0.102000E+03
     1    94    73  -0.234339E+04  -0.581922E+03  -0.674392E+02  -0.740000E+02


 SOLVING FOR HEAD 
                                                   Max.-Head-Change                        Max.-Flux-Residual
  Residual-Control   Outer-Iter.   Inner-Iter.     Column Row Layer    Max.-Head-Change    Column Row Layer    Max.-Flux-Residual            L2-New               L2-Old           Solver-Max-Delh
          0                 1           3           343  217     1      -0.3320233314E+00     213   83    1      -0.8046651360E+03      0.8657118916E+04      0.4385495920E+02     -0.3320233314E+00
          0                 2           2           343  217     1       0.2857328316E-01     213   83    1       0.8044542391E+02      0.8656562187E+03      0.8657118916E+04      0.2857328316E-01

    ------------------------------------------------
       NWT REQUIRED            2 OUTER ITERATIONS 
       AND A TOTAL OF          5 INNER ITERATIONS.
    ------------------------------------------------

 NO OUTPUT CONTROL FOR STRESS PERIOD   71   TIME STEP    9

 WELLS WITH REDUCED PUMPING FOR STRESS PERIOD    71 TIME STEP     9
   LAY   ROW   COL         APPL.Q          ACT.Q        GW-HEAD       CELL-BOT
     1    77   213  -0.234339E+04  -0.881857E+03   0.152988E+03   0.148000E+03
     1    92    77  -0.234339E+04  -0.432960E+03  -0.863821E+02  -0.930000E+02
     1    94    77  -0.234339E+04  -0.493858E+03  -0.953092E+02  -0.102000E+03
     1    94    73  -0.234339E+04  -0.574418E+03  -0.674884E+02  -0.740000E+02


 SOLVING FOR HEAD 
                                                   Max.-Head-Change                        Max.-Flux-Residual
  Residual-Control   Outer-Iter.   Inner-Iter.     Column Row Layer    Max.-Head-Change    Column Row Layer    Max.-Flux-Residual            L2-New               L2-Old           Solver-Max-Delh
          0                 1           3           213   83     1      -0.3261244937E+00     213   83    1      -0.7933443863E+03      0.8551012268E+04      0.4328140607E+02     -0.3261244937E+00
          0                 2           2           213   83     1       0.2815931883E-01     213   83    1       0.7931377776E+02      0.8548348556E+03      0.8551012268E+04      0.2815931883E-01

    ------------------------------------------------
       NWT REQUIRED            2 OUTER ITERATIONS 
       AND A TOTAL OF          5 INNER ITERATIONS.
    ------------------------------------------------

 OUTPUT CONTROL FOR STRESS PERIOD   71   TIME STEP   10
    SAVE HEAD FOR ALL LAYERS

 WELLS WITH REDUCED PUMPING FOR STRESS PERIOD    71 TIME STEP    10
   LAY   ROW   COL         APPL.Q          ACT.Q        GW-HEAD       CELL-BOT
     1    77   213  -0.234339E+04  -0.870067E+03   0.152946E+03   0.148000E+03
     1    92    77  -0.234339E+04  -0.433000E+03  -0.863818E+02  -0.930000E+02
     1    94    77  -0.234339E+04  -0.488250E+03  -0.953526E+02  -0.102000E+03
     1    94    73  -0.234339E+04  -0.567356E+03  -0.675349E+02  -0.740000E+02


 HEAD WILL BE SAVED ON UNIT   51 AT END OF TIME STEP   10, STRESS PERIOD   71
1
  VOLUMETRIC BUDGET FOR ENTIRE MODEL AT END OF TIME STEP   10, STRESS PERIOD  71
  ------------------------------------------------------------------------------

     CUMULATIVE VOLUMES      L**3       RATES FOR THIS TIME STEP      L**3/T
     ------------------                 ------------------------

           IN:                                      IN:
           ---                                      ---
             STORAGE =   690807744.0000               STORAGE =      410735.7188
       CONSTANT HEAD =   110061328.0000         CONSTANT HEAD =       52148.7305
               WELLS =           0.0000                 WELLS =           0.0000
              DRAINS =           0.0000                DRAINS =           0.0000
                  ET =           0.0000                    ET =           0.0000
            RECHARGE =   399355328.0000              RECHARGE =      121128.1328

            TOTAL IN =  1200224384.0000              TOTAL IN =      584012.5625

          OUT:                                     OUT:
          ----                                     ----
             STORAGE =   214222928.0000               STORAGE =        8939.4170
       CONSTANT HEAD =           0.0000         CONSTANT HEAD =           0.0000
               WELLS =   647984640.0000                 WELLS =      447930.2812
              DRAINS =   238727536.0000                DRAINS =       84191.7734
                  ET =    97296160.0000                    ET =       31986.7070
            RECHARGE =      525047.1875              RECHARGE =        8962.8779

           TOTAL OUT =  1198756224.0000             TOTAL OUT =      582011.0000

            IN - OUT =     1468160.0000              IN - OUT =        2001.5625

 PERCENT DISCREPANCY =           0.12     PERCENT DISCREPANCY =           0.34






         TIME SUMMARY AT END OF TIME STEP   10 IN STRESS PERIOD   71
                    SECONDS     MINUTES      HOURS       DAYS        YEARS
                    -----------------------------------------------------------
   TIME STEP LENGTH 2.62656E+05  4377.6      72.960      3.0400     8.32307E-03
 STRESS PERIOD TIME 2.62656E+06  43776.      729.60      30.400     8.32307E-02
         TOTAL TIME 1.86487E+08 3.10811E+06  51802.      2158.4      5.9094    
1
1
                            STRESS PERIOD NO.   72, LENGTH =   30.40000    
                            -----------------------------------------------

                              NUMBER OF TIME STEPS =    10

                               MULTIPLIER FOR DELT =     1.000

                            INITIAL TIME STEP SIZE =   3.040000    

 WELL NO.  LAYER   ROW   COL   STRESS RATE         
 --------------------------------------------------
      1      1     69    225      -6134.    
      2      1     71    224       0.000    
      3      1     74    220       0.000    
      4      1     73    220       0.000    
      5      1     71    223       0.000    
      6      1     71    223       0.000    
      7      1     72    223       0.000    
      8      1     92    173       0.000    
      9      1     94    174       0.000    
     10      1     93    175       0.000    
     11      1    203    328       0.000    
     12      1    438    460      -0.000    
     13      1    436    461      -0.000    
     14      1    410    454      -0.000    
     15      1    433    460      -0.000    
     16      1    431    462      -0.000    
     17      1    417    459      -0.000    
     18      1    418    458      -0.000    
     19      1    414    455      -0.000    
     20      1    443    464      -0.000    
     21      1    379    425      -0.000    
     22      1    362    405      -0.000    
     23      1    361    405      -0.000    
     24      1    362    406      -0.000    
     25      1    363    408      -0.000    
     26      1    364    410      -0.000    
     27      1    369    418      -0.000    
     28      1    367    417      -0.000    
     29      1    365    415      -0.000    
     30      1    402    447      -0.000    
     31      1    400    446      -0.000    
     32      1    392    444      -0.000    
     33      1    391    441      -0.000    
     34      1    403    448      -0.000    
     35      1    405    447      -0.000    
     36      1    362    410      -0.000    
     37      1    362    411      -0.000    
     38      1    363    412      -0.000    
     39      1    375    421      -0.000    
     40      1    383    430      -0.000    
     41      1    397    445      -0.000    
     42      1    360    403      -0.000    
     43      1    350    401      -0.000    
     44      1    346    393      -66.64    
     45      1    333    387      -66.64    
     46      1    328    384      -66.64    
     47      1    326    383      -66.64    
     48      1    323    378      -66.64    
     49      1    321    378      -66.64    
     50      1    322    376      -66.64    
     51      1    316    374      -66.64    
     52      1    311    371      -66.64    
     53      1    307    369      -66.64    
     54      1    305    368      -66.64    
     55      1    303    368      -66.64    
     56      1    300    369      -66.64    
     57      1    293    364      -66.64    
     58      1    292    362      -66.64    
     59      1    278    350      -66.64    
     60      1    274    351      -66.64    
     61      1    273    350      -66.64    
     62      1    271    350      -66.64    
     63      1    267    348      -66.64    
     64      1    263    348      -66.64    
     65      1    263    348      -66.64    
     66      1    248    347      -66.64    
     67      1    243    342      -66.64    
     68      1    242    339      -66.64    
     69      1    238    341      -66.64    
     70      1    233    340      -66.64    
     71      1    232    340      -66.64    
     72      1    229    341      -66.64    
     73      1    227    341      -66.64    
     74      1    219    342      -66.64    
     75      1    219    336      -66.64    
     76      1    199    329      -66.64    
     77      1    191    332      -145.5    
     78      1    190    332      -145.5    
     79      1    130    310      -145.5    
     80      1    123    305      -145.5    
     81      1    104    289      -145.5    
     82      1     96    287      -510.6    
     83      1     95    284      -510.6    
     84      1     95    280      -510.6    
     85      1     93    276      -510.6    
     86      1     94    275      -510.6    
     87      1     90    277      -510.6    
     88      1     90    273      -510.6    
     89      1     86    271      -510.6    
     90      1     85    270      -510.6    
     91      1     84    265      -510.6    
     92      1     85    265      -510.6    
     93      1     84    264      -510.6    
     94      1     79    263      -510.6    
     95      1     79    263      -510.6    
     96      1     76    262      -510.6    
     97      1     73    257      -510.6    
     98      1     74    255      -510.6    
     99      1     71    255      -510.6    
    100      1     66    253      -510.6    
    101      1     68    252      -510.6    
    102      1     69    250      -510.6    
    103      1     65    248      -510.6    
    104      1     68    248      -510.6    
    105      1     69    247      -510.6    
    106      1     73    247      -510.6    
    107      1     64    246      -510.6    
    108      1     69    245      -510.6    
    109      1     72    245      -510.6    
    110      1     69    241      -510.6    
    111      1     73    238      -510.6    
    112      1     70    238      -510.6    
    113      1     76    263      -510.6    
    114      1     66    232      -620.9    
    115      1     69    229      -620.9    
    116      1     71    228      -620.9    
    117      1     69    227      -620.9    
    118      1     72    219      -620.9    
    119      1     72    218      -620.9    
    120      1     72    218      -620.9    
    121      1     73    217      -620.9    
    122      1     77    219      -620.9    
    123      1     78    219      -620.9    
    124      1     83    213      -620.9    
    125      1     77    213      -620.9    
    126      1     81    211      -620.9    
    127      1     81    210      -620.9    
    128      1     81    210      -620.9    
    129      1     82    208      -620.9    
    130      1     80    205      -620.9    
    131      1     86    202      -620.9    
    132      1     84    200      -620.9    
    133      1     89    200      -620.9    
    134      1     89    199      -620.9    
    135      1     88    199      -620.9    
    136      1     86    199      -620.9    
    137      1     85    199      -620.9    
    138      1     82    197      -620.9    
    139      1     86    197      -620.9    
    140      1     88    198      -620.9    
    141      1     90    192      -620.9    
    142      1     89    191      -620.9    
    143      1     84    192      -620.9    
    144      1     91    189      -620.9    
    145      1     92    185      -620.9    
    146      1     87    183      -620.9    
    147      1     92    182      -620.9    
    148      1     90    182      -620.9    
    149      1     88    179      -620.9    
    150      1     89    176      -620.9    
    151      1     92    172      -620.9    
    152      1     93    164      -620.9    
    153      1     94    162      -620.9    
    154      1    103    156      -620.9    
    155      1    103    156      -620.9    
    156      1     96    154      -620.9    
    157      1     97    153      -620.9    
    158      1    122    139      -620.9    
    159      1     92     77      -620.9    
    160      1     94     77      -620.9    
    161      1     94     73      -620.9    
    162      1     97    152      -620.9    
    163      1    118    337      -666.7    
    164      1    133    319      -2678.    
    165      1    131    320      -3951.    
    166      1    133    321      -2956.    
    167      1    161    329      -2141.    
    168      1    178    330      -551.0    
    169      1    163    330      -1122.    
    170      1    131    320      -2473.    
    171      1    129    315      -3937.    
    172      1    162    329      -1959.    
    173      1    131    311      -826.1    
    174      1    221    340      -1994.    
    175      1    220    340      -1034.    
    176      1    221    340      -667.7    
    177      1    137    322      -2082.    
    178      1    137    321      -1407.    
    179      1    185    329      -2012.    
    180      1    183    329      -1473.    
    181      1    175    329      -585.3    
    182      1     79    243      -1490.    
    183      1     77    245      -2414.    
    184      1    199    329      -1617.    
    185      1    198    330      -2514.    
    186      1    140    328      -972.1    
    187      1    143    327      -863.6    
    188      1    139    327      -1331.    

    188 WELLS

 REUSING NON-PARAMETER DRAINS FROM LAST STRESS PERIOD

   1061 DRAINS

 REUSING SURF FROM LAST STRESS PERIOD

 REUSING EVTR FROM LAST STRESS PERIOD

 REUSING EXDP FROM LAST STRESS PERIOD



                           RECHARGE
 READING ON UNIT   19 WITH FORMAT: (510E15.6)          

 SOLVING FOR HEAD 
                                                   Max.-Head-Change                        Max.-Flux-Residual
  Residual-Control   Outer-Iter.   Inner-Iter.     Column Row Layer    Max.-Head-Change    Column Row Layer    Max.-Flux-Residual            L2-New               L2-Old           Solver-Max-Delh
          0                 1           3           263   79     1       0.2099106685E+02     348  263    1       0.7509335383E+04      0.3297286645E+05      0.4274045093E+02      0.2099106685E+02
          0                 2           2           263   79     1      -0.2037698908E+01     348  263    1      -0.8573596654E+03      0.3404925686E+04      0.3297286645E+05     -0.2037698908E+01
          0                 3           2           263   79     1      -0.1045093590E+00     348  263    1      -0.4331593214E+02      0.1722130512E+03      0.3404925686E+04     -0.1045093590E+00
          0                 4           2           457  453     1       0.7613344979E-02     348  263    1      -0.2166504750E+01      0.8610771677E+01      0.1722130512E+03      0.7613344979E-02

    ------------------------------------------------
       NWT REQUIRED            4 OUTER ITERATIONS 
       AND A TOTAL OF          9 INNER ITERATIONS.
    ------------------------------------------------

 NO OUTPUT CONTROL FOR STRESS PERIOD   72   TIME STEP    1

 WELLS WITH REDUCED PUMPING FOR STRESS PERIOD    72 TIME STEP     1
   LAY   ROW   COL         APPL.Q          ACT.Q        GW-HEAD       CELL-BOT
     1    77   213  -0.620891E+03  -0.244664E+03   0.153133E+03   0.148000E+03
     1    92    77  -0.620891E+03  -0.172359E+03  -0.846372E+02  -0.930000E+02
     1    94    77  -0.620891E+03  -0.132209E+03  -0.952696E+02  -0.102000E+03
     1    94    73  -0.620891E+03  -0.154417E+03  -0.674334E+02  -0.740000E+02


 SOLVING FOR HEAD 
                                                   Max.-Head-Change                        Max.-Flux-Residual
  Residual-Control   Outer-Iter.   Inner-Iter.     Column Row Layer    Max.-Head-Change    Column Row Layer    Max.-Flux-Residual            L2-New               L2-Old           Solver-Max-Delh
          0                 1           3           263   79     1       0.8955631715E+01     393  346    1       0.3055641457E+04      0.1468270781E+05      0.8610771677E+01      0.8955631715E+01
          0                 2           2           263   79     1      -0.8337365116E+00     393  346    1      -0.3057550560E+03      0.1479525821E+04      0.1468270781E+05     -0.8337365116E+00
          0                 3           2           263   79     1      -0.4236345712E-01     393  346    1      -0.1528917026E+02      0.7409369474E+02      0.1479525821E+04     -0.4236345712E-01

    ------------------------------------------------
       NWT REQUIRED            3 OUTER ITERATIONS 
       AND A TOTAL OF          7 INNER ITERATIONS.
    ------------------------------------------------

 NO OUTPUT CONTROL FOR STRESS PERIOD   72   TIME STEP    2

 WELLS WITH REDUCED PUMPING FOR STRESS PERIOD    72 TIME STEP     2
   LAY   ROW   COL         APPL.Q          ACT.Q        GW-HEAD       CELL-BOT
     1    77   213  -0.620891E+03  -0.258443E+03   0.153313E+03   0.148000E+03
     1    92    77  -0.620891E+03  -0.221001E+03  -0.832927E+02  -0.930000E+02
     1    94    77  -0.620891E+03  -0.135035E+03  -0.951878E+02  -0.102000E+03
     1    94    73  -0.620891E+03  -0.158476E+03  -0.673336E+02  -0.740000E+02


 SOLVING FOR HEAD 
                                                   Max.-Head-Change                        Max.-Flux-Residual
  Residual-Control   Outer-Iter.   Inner-Iter.     Column Row Layer    Max.-Head-Change    Column Row Layer    Max.-Flux-Residual            L2-New               L2-Old           Solver-Max-Delh
          0                 1           3           263   79     1       0.4089192443E+01     393  346    1       0.2642635220E+04      0.1093834600E+05      0.7409369474E+02      0.4089192443E+01
          0                 2           2           263   79     1      -0.3757339116E+00     393  346    1      -0.2644344715E+03      0.1106844297E+04      0.1093834600E+05     -0.3757339116E+00
          0                 3           2           263   79     1      -0.1896835415E-01     393  346    1      -0.1322299287E+02      0.5532830350E+02      0.1106844297E+04     -0.1896835415E-01

    ------------------------------------------------
       NWT REQUIRED            3 OUTER ITERATIONS 
       AND A TOTAL OF          7 INNER ITERATIONS.
    ------------------------------------------------

 NO OUTPUT CONTROL FOR STRESS PERIOD   72   TIME STEP    3

 WELLS WITH REDUCED PUMPING FOR STRESS PERIOD    72 TIME STEP     3
   LAY   ROW   COL         APPL.Q          ACT.Q        GW-HEAD       CELL-BOT
     1    77   213  -0.620891E+03  -0.271838E+03   0.153486E+03   0.148000E+03
     1    92    77  -0.620891E+03  -0.259739E+03  -0.822659E+02  -0.930000E+02
     1    94    77  -0.620891E+03  -0.137840E+03  -0.951072E+02  -0.102000E+03
     1    94    73  -0.620891E+03  -0.162497E+03  -0.672355E+02  -0.740000E+02


 SOLVING FOR HEAD 
                                                   Max.-Head-Change                        Max.-Flux-Residual
  Residual-Control   Outer-Iter.   Inner-Iter.     Column Row Layer    Max.-Head-Change    Column Row Layer    Max.-Flux-Residual            L2-New               L2-Old           Solver-Max-Delh
          0                 1           3           263   79     1       0.2024802646E+01     374  316    1       0.2318847032E+04      0.9088498465E+04      0.5532830350E+02      0.2024802646E+01
          0                 2           2           263   79     1      -0.1788487992E+00     374  316    1      -0.2319874974E+03      0.9111770403E+03      0.9088498465E+04     -0.1788487992E+00
          0                 3           2           263   79     1      -0.8984496217E-02     374  316    1      -0.1160013749E+02      0.4562084422E+02      0.9111770403E+03     -0.8984496217E-02

    ------------------------------------------------
       NWT REQUIRED            3 OUTER ITERATIONS 
       AND A TOTAL OF          7 INNER ITERATIONS.
    ------------------------------------------------

 NO OUTPUT CONTROL FOR STRESS PERIOD   72   TIME STEP    4

 WELLS WITH REDUCED PUMPING FOR STRESS PERIOD    72 TIME STEP     4
   LAY   ROW   COL         APPL.Q          ACT.Q        GW-HEAD       CELL-BOT
     1    77   213  -0.620891E+03  -0.284833E+03   0.153654E+03   0.148000E+03
     1    92    77  -0.620891E+03  -0.289739E+03  -0.814845E+02  -0.930000E+02
     1    94    77  -0.620891E+03  -0.140622E+03  -0.950277E+02  -0.102000E+03
     1    94    73  -0.620891E+03  -0.166478E+03  -0.671390E+02  -0.740000E+02


 SOLVING FOR HEAD 
                                                   Max.-Head-Change                        Max.-Flux-Residual
  Residual-Control   Outer-Iter.   Inner-Iter.     Column Row Layer    Max.-Head-Change    Column Row Layer    Max.-Flux-Residual            L2-New               L2-Old           Solver-Max-Delh
          0                 1           3           263   78     1       0.1204779802E+01     374  316    1       0.2077083511E+04      0.7932773616E+04      0.4562084422E+02      0.1204779802E+01
          0                 2           2           263   78     1      -0.1054421699E+00     374  316    1      -0.2078081559E+03      0.7964077506E+03      0.7932773616E+04     -0.1054421699E+00
          0                 3           2           457  453     1       0.7248070086E-02     374  316    1      -0.1039115074E+02      0.3983184097E+02      0.7964077506E+03      0.7248070086E-02

    ------------------------------------------------
       NWT REQUIRED            3 OUTER ITERATIONS 
       AND A TOTAL OF          7 INNER ITERATIONS.
    ------------------------------------------------

 NO OUTPUT CONTROL FOR STRESS PERIOD   72   TIME STEP    5

 WELLS WITH REDUCED PUMPING FOR STRESS PERIOD    72 TIME STEP     5
   LAY   ROW   COL         APPL.Q          ACT.Q        GW-HEAD       CELL-BOT
     1    77   213  -0.620891E+03  -0.297417E+03   0.153816E+03   0.148000E+03
     1    92    77  -0.620891E+03  -0.312662E+03  -0.808909E+02  -0.930000E+02
     1    94    77  -0.620891E+03  -0.143381E+03  -0.949494E+02  -0.102000E+03
     1    94    73  -0.620891E+03  -0.170418E+03  -0.670442E+02  -0.740000E+02


 SOLVING FOR HEAD 
                                                   Max.-Head-Change                        Max.-Flux-Residual
  Residual-Control   Outer-Iter.   Inner-Iter.     Column Row Layer    Max.-Head-Change    Column Row Layer    Max.-Flux-Residual            L2-New               L2-Old           Solver-Max-Delh
          0                 1           3           264   78     1       0.1000440841E+01     378  321    1       0.1869235194E+04      0.7122163911E+04      0.3983184097E+02      0.1000440841E+01
          0                 2           2           264   78     1      -0.8782189005E-01     378  321    1      -0.1870393688E+03      0.7146251987E+03      0.7122163911E+04     -0.8782189005E-01

    ------------------------------------------------
       NWT REQUIRED            2 OUTER ITERATIONS 
       AND A TOTAL OF          5 INNER ITERATIONS.
    ------------------------------------------------

 NO OUTPUT CONTROL FOR STRESS PERIOD   72   TIME STEP    6

 WELLS WITH REDUCED PUMPING FOR STRESS PERIOD    72 TIME STEP     6
   LAY   ROW   COL         APPL.Q          ACT.Q        GW-HEAD       CELL-BOT
     1    77   213  -0.620891E+03  -0.309641E+03   0.153973E+03   0.148000E+03
     1    92    77  -0.620891E+03  -0.330152E+03  -0.804380E+02  -0.930000E+02
     1    94    77  -0.620891E+03  -0.146130E+03  -0.948718E+02  -0.102000E+03
     1    94    73  -0.620891E+03  -0.174334E+03  -0.669506E+02  -0.740000E+02


 SOLVING FOR HEAD 
                                                   Max.-Head-Change                        Max.-Flux-Residual
  Residual-Control   Outer-Iter.   Inner-Iter.     Column Row Layer    Max.-Head-Change    Column Row Layer    Max.-Flux-Residual            L2-New               L2-Old           Solver-Max-Delh
          0                 1           3           264   78     1       0.8319380384E+00     378  321    1       0.1705718662E+04      0.6512620503E+04      0.3656324581E+02      0.8319380384E+00
          0                 2           2           264   78     1      -0.7291999272E-01     378  321    1      -0.1706861433E+03      0.6577267426E+03      0.6512620503E+04     -0.7291999272E-01

    ------------------------------------------------
       NWT REQUIRED            2 OUTER ITERATIONS 
       AND A TOTAL OF          5 INNER ITERATIONS.
    ------------------------------------------------

 NO OUTPUT CONTROL FOR STRESS PERIOD   72   TIME STEP    7

 WELLS WITH REDUCED PUMPING FOR STRESS PERIOD    72 TIME STEP     7
   LAY   ROW   COL         APPL.Q          ACT.Q        GW-HEAD       CELL-BOT
     1    77   213  -0.620891E+03  -0.321440E+03   0.154125E+03   0.148000E+03
     1    92    77  -0.620891E+03  -0.343379E+03  -0.800945E+02  -0.930000E+02
     1    94    77  -0.620891E+03  -0.148854E+03  -0.947954E+02  -0.102000E+03
     1    94    73  -0.620891E+03  -0.178206E+03  -0.668586E+02  -0.740000E+02


 SOLVING FOR HEAD 
                                                   Max.-Head-Change                        Max.-Flux-Residual
  Residual-Control   Outer-Iter.   Inner-Iter.     Column Row Layer    Max.-Head-Change    Column Row Layer    Max.-Flux-Residual            L2-New               L2-Old           Solver-Max-Delh
          0                 1           3           343  217     1       0.7436661159E+00     378  321    1       0.1560535095E+04      0.6039831390E+04      0.3400693508E+02      0.7436661159E+00
          0                 2           2           343  217     1      -0.6471143411E-01     378  321    1      -0.1561630032E+03      0.6042388252E+03      0.6039831390E+04     -0.6471143411E-01

    ------------------------------------------------
       NWT REQUIRED            2 OUTER ITERATIONS 
       AND A TOTAL OF          5 INNER ITERATIONS.
    ------------------------------------------------

 NO OUTPUT CONTROL FOR STRESS PERIOD   72   TIME STEP    8

 WELLS WITH REDUCED PUMPING FOR STRESS PERIOD    72 TIME STEP     8
   LAY   ROW   COL         APPL.Q          ACT.Q        GW-HEAD       CELL-BOT
     1    77   213  -0.620891E+03  -0.332814E+03   0.154271E+03   0.148000E+03
     1    92    77  -0.620891E+03  -0.353371E+03  -0.798342E+02  -0.930000E+02
     1    94    77  -0.620891E+03  -0.151553E+03  -0.947201E+02  -0.102000E+03
     1    94    73  -0.620891E+03  -0.182032E+03  -0.667682E+02  -0.740000E+02


 SOLVING FOR HEAD 
                                                   Max.-Head-Change                        Max.-Flux-Residual
  Residual-Control   Outer-Iter.   Inner-Iter.     Column Row Layer    Max.-Head-Change    Column Row Layer    Max.-Flux-Residual            L2-New               L2-Old           Solver-Max-Delh
          0                 1           3           343  217     1       0.6957336669E+00     378  321    1       0.1431222075E+04      0.5660608522E+04      0.3111424968E+02      0.6957336669E+00
          0                 2           2           343  217     1      -0.6052022660E-01     378  321    1      -0.1432251769E+03      0.5711280533E+03      0.5660608522E+04     -0.6052022660E-01

    ------------------------------------------------
       NWT REQUIRED            2 OUTER ITERATIONS 
       AND A TOTAL OF          5 INNER ITERATIONS.
    ------------------------------------------------

 NO OUTPUT CONTROL FOR STRESS PERIOD   72   TIME STEP    9

 WELLS WITH REDUCED PUMPING FOR STRESS PERIOD    72 TIME STEP     9
   LAY   ROW   COL         APPL.Q          ACT.Q        GW-HEAD       CELL-BOT
     1    77   213  -0.620891E+03  -0.343767E+03   0.154413E+03   0.148000E+03
     1    92    77  -0.620891E+03  -0.360914E+03  -0.796370E+02  -0.930000E+02
     1    94    77  -0.620891E+03  -0.154226E+03  -0.946460E+02  -0.102000E+03
     1    94    73  -0.620891E+03  -0.185812E+03  -0.666794E+02  -0.740000E+02


 SOLVING FOR HEAD 
                                                   Max.-Head-Change                        Max.-Flux-Residual
  Residual-Control   Outer-Iter.   Inner-Iter.     Column Row Layer    Max.-Head-Change    Column Row Layer    Max.-Flux-Residual            L2-New               L2-Old           Solver-Max-Delh
          0                 1           3           343  217     1       0.6453083132E+00     378  321    1       0.1315710036E+04      0.5351026911E+04      0.2836944575E+02      0.6453083132E+00
          0                 2           2           343  217     1      -0.5610817111E-01     378  321    1      -0.1316666331E+03      0.5352231780E+03      0.5351026911E+04     -0.5610817111E-01

    ------------------------------------------------
       NWT REQUIRED            2 OUTER ITERATIONS 
       AND A TOTAL OF          5 INNER ITERATIONS.
    ------------------------------------------------

 OUTPUT CONTROL FOR STRESS PERIOD   72   TIME STEP   10
    SAVE HEAD FOR ALL LAYERS

 WELLS WITH REDUCED PUMPING FOR STRESS PERIOD    72 TIME STEP    10
   LAY   ROW   COL         APPL.Q          ACT.Q        GW-HEAD       CELL-BOT
     1    77   213  -0.620891E+03  -0.354304E+03   0.154549E+03   0.148000E+03
     1    92    77  -0.620891E+03  -0.366604E+03  -0.794877E+02  -0.930000E+02
     1    94    77  -0.620891E+03  -0.156873E+03  -0.945729E+02  -0.102000E+03
     1    94    73  -0.620891E+03  -0.189544E+03  -0.665921E+02  -0.740000E+02


 HEAD WILL BE SAVED ON UNIT   51 AT END OF TIME STEP   10, STRESS PERIOD   72
1
  VOLUMETRIC BUDGET FOR ENTIRE MODEL AT END OF TIME STEP   10, STRESS PERIOD  72
  ------------------------------------------------------------------------------

     CUMULATIVE VOLUMES      L**3       RATES FOR THIS TIME STEP      L**3/T
     ------------------                 ------------------------

           IN:                                      IN:
           ---                                      ---
             STORAGE =   697254784.0000               STORAGE =      178999.6094
       CONSTANT HEAD =   111646696.0000         CONSTANT HEAD =       52151.5430
               WELLS =           0.0000                 WELLS =           0.0000
              DRAINS =           0.0000                DRAINS =           0.0000
                  ET =           0.0000                    ET =           0.0000
            RECHARGE =   401443648.0000              RECHARGE =       68692.6172

            TOTAL IN =  1210345216.0000              TOTAL IN =      299843.7812

          OUT:                                     OUT:
          ----                                     ----
             STORAGE =   217662000.0000               STORAGE =       76333.4766
       CONSTANT HEAD =           0.0000         CONSTANT HEAD =           0.0000
               WELLS =   650990144.0000                 WELLS =       99014.0234
              DRAINS =   241412944.0000                DRAINS =       91153.0391
                  ET =    98278864.0000                    ET =       32835.5234
            RECHARGE =      525047.1875              RECHARGE =           0.0000

           TOTAL OUT =  1208869120.0000             TOTAL OUT =      299336.0625

            IN - OUT =     1476096.0000              IN - OUT =         507.7188

 PERCENT DISCREPANCY =           0.12     PERCENT DISCREPANCY =           0.17






         TIME SUMMARY AT END OF TIME STEP   10 IN STRESS PERIOD   72
                    SECONDS     MINUTES      HOURS       DAYS        YEARS
                    -----------------------------------------------------------
   TIME STEP LENGTH 2.62656E+05  4377.6      72.960      3.0400     8.32307E-03
 STRESS PERIOD TIME 2.62656E+06  43776.      729.60      30.400     8.32307E-02
         TOTAL TIME 1.89113E+08 3.15189E+06  52531.      2188.8      5.9926    
1
1
                            STRESS PERIOD NO.   73, LENGTH =   30.40000    
                            -----------------------------------------------

                              NUMBER OF TIME STEPS =    10

                               MULTIPLIER FOR DELT =     1.000

                            INITIAL TIME STEP SIZE =   3.040000    

 WELL NO.  LAYER   ROW   COL   STRESS RATE         
 --------------------------------------------------
      1      1     69    225      -6221.    
      2      1     71    224       0.000    
      3      1     74    220       0.000    
      4      1     73    220       0.000    
      5      1     71    223       0.000    
      6      1     71    223       0.000    
      7      1     72    223       0.000    
      8      1     92    173       0.000    
      9      1     94    174       0.000    
     10      1     93    175       0.000    
     11      1    203    328       0.000    
     12      1    438    460      -562.4    
     13      1    436    461      -562.4    
     14      1    410    454      -562.4    
     15      1    433    460      -562.4    
     16      1    431    462      -562.4    
     17      1    417    459      -562.4    
     18      1    418    458      -562.4    
     19      1    414    455      -562.4    
     20      1    443    464      -562.4    
     21      1    379    425      -562.4    
     22      1    362    405      -562.4    
     23      1    361    405      -562.4    
     24      1    362    406      -562.4    
     25      1    363    408      -562.4    
     26      1    364    410      -562.4    
     27      1    369    418      -562.4    
     28      1    367    417      -562.4    
     29      1    365    415      -562.4    
     30      1    402    447      -562.4    
     31      1    400    446      -562.4    
     32      1    392    444      -562.4    
     33      1    391    441      -562.4    
     34      1    403    448      -562.4    
     35      1    405    447      -562.4    
     36      1    362    410      -562.4    
     37      1    362    411      -562.4    
     38      1    363    412      -562.4    
     39      1    375    421      -562.4    
     40      1    383    430      -562.4    
     41      1    397    445      -562.4    
     42      1    360    403      -562.4    
     43      1    350    401      -562.4    
     44      1    346    393      -651.5    
     45      1    333    387      -651.5    
     46      1    328    384      -651.5    
     47      1    326    383      -651.5    
     48      1    323    378      -651.5    
     49      1    321    378      -651.5    
     50      1    322    376      -651.5    
     51      1    316    374      -651.5    
     52      1    311    371      -651.5    
     53      1    307    369      -651.5    
     54      1    305    368      -651.5    
     55      1    303    368      -651.5    
     56      1    300    369      -651.5    
     57      1    293    364      -651.5    
     58      1    292    362      -651.5    
     59      1    278    350      -651.5    
     60      1    274    351      -651.5    
     61      1    273    350      -651.5    
     62      1    271    350      -651.5    
     63      1    267    348      -651.5    
     64      1    263    348      -651.5    
     65      1    263    348      -651.5    
     66      1    248    347      -651.5    
     67      1    243    342      -651.5    
     68      1    242    339      -651.5    
     69      1    238    341      -651.5    
     70      1    233    340      -651.5    
     71      1    232    340      -651.5    
     72      1    229    341      -651.5    
     73      1    227    341      -651.5    
     74      1    219    342      -651.5    
     75      1    219    336      -651.5    
     76      1    199    329      -651.5    
     77      1    191    332      -951.9    
     78      1    190    332      -951.9    
     79      1    130    310      -951.9    
     80      1    123    305      -951.9    
     81      1    104    289      -951.9    
     82      1     96    287      -1045.    
     83      1     95    284      -1045.    
     84      1     95    280      -1045.    
     85      1     93    276      -1045.    
     86      1     94    275      -1045.    
     87      1     90    277      -1045.    
     88      1     90    273      -1045.    
     89      1     86    271      -1045.    
     90      1     85    270      -1045.    
     91      1     84    265      -1045.    
     92      1     85    265      -1045.    
     93      1     84    264      -1045.    
     94      1     79    263      -1045.    
     95      1     79    263      -1045.    
     96      1     76    262      -1045.    
     97      1     73    257      -1045.    
     98      1     74    255      -1045.    
     99      1     71    255      -1045.    
    100      1     66    253      -1045.    
    101      1     68    252      -1045.    
    102      1     69    250      -1045.    
    103      1     65    248      -1045.    
    104      1     68    248      -1045.    
    105      1     69    247      -1045.    
    106      1     73    247      -1045.    
    107      1     64    246      -1045.    
    108      1     69    245      -1045.    
    109      1     72    245      -1045.    
    110      1     69    241      -1045.    
    111      1     73    238      -1045.    
    112      1     70    238      -1045.    
    113      1     76    263      -1045.    
    114      1     66    232      -728.1    
    115      1     69    229      -728.1    
    116      1     71    228      -728.1    
    117      1     69    227      -728.1    
    118      1     72    219      -728.1    
    119      1     72    218      -728.1    
    120      1     72    218      -728.1    
    121      1     73    217      -728.1    
    122      1     77    219      -728.1    
    123      1     78    219      -728.1    
    124      1     83    213      -728.1    
    125      1     77    213      -728.1    
    126      1     81    211      -728.1    
    127      1     81    210      -728.1    
    128      1     81    210      -728.1    
    129      1     82    208      -728.1    
    130      1     80    205      -728.1    
    131      1     86    202      -728.1    
    132      1     84    200      -728.1    
    133      1     89    200      -728.1    
    134      1     89    199      -728.1    
    135      1     88    199      -728.1    
    136      1     86    199      -728.1    
    137      1     85    199      -728.1    
    138      1     82    197      -728.1    
    139      1     86    197      -728.1    
    140      1     88    198      -728.1    
    141      1     90    192      -728.1    
    142      1     89    191      -728.1    
    143      1     84    192      -728.1    
    144      1     91    189      -728.1    
    145      1     92    185      -728.1    
    146      1     87    183      -728.1    
    147      1     92    182      -728.1    
    148      1     90    182      -728.1    
    149      1     88    179      -728.1    
    150      1     89    176      -728.1    
    151      1     92    172      -728.1    
    152      1     93    164      -728.1    
    153      1     94    162      -728.1    
    154      1    103    156      -728.1    
    155      1    103    156      -728.1    
    156      1     96    154      -728.1    
    157      1     97    153      -728.1    
    158      1    122    139      -728.1    
    159      1     92     77      -728.1    
    160      1     94     77      -728.1    
    161      1     94     73      -728.1    
    162      1     97    152      -728.1    
    163      1    118    337      -666.7    
    164      1    133    319      -2678.    
    165      1    131    320      -3951.    
    166      1    133    321      -2956.    
    167      1    161    329      -2141.    
    168      1    178    330      -551.0    
    169      1    163    330      -1122.    
    170      1    131    320      -2473.    
    171      1    129    315      -3937.    
    172      1    162    329      -1959.    
    173      1    131    311      -826.1    
    174      1    221    340      -1994.    
    175      1    220    340      -1034.    
    176      1    221    340      -667.7    
    177      1    137    322      -2082.    
    178      1    137    321      -1407.    
    179      1    185    329      -2012.    
    180      1    183    329      -1473.    
    181      1    175    329      -585.3    
    182      1     79    243      -1490.    
    183      1     77    245      -2414.    
    184      1    199    329      -1617.    
    185      1    198    330      -2514.    
    186      1    140    328      -972.1    
    187      1    143    327      -863.6    
    188      1    139    327      -1331.    

    188 WELLS

 REUSING NON-PARAMETER DRAINS FROM LAST STRESS PERIOD

   1061 DRAINS

 REUSING SURF FROM LAST STRESS PERIOD

 REUSING EVTR FROM LAST STRESS PERIOD

 REUSING EXDP FROM LAST STRESS PERIOD



                           RECHARGE
 READING ON UNIT   19 WITH FORMAT: (510E15.6)          

 SOLVING FOR HEAD 
                                                   Max.-Head-Change                        Max.-Flux-Residual
  Residual-Control   Outer-Iter.   Inner-Iter.     Column Row Layer    Max.-Head-Change    Column Row Layer    Max.-Flux-Residual            L2-New               L2-Old           Solver-Max-Delh
          0                 1           3           263   79     1      -0.3067988372E+01     348  263    1      -0.1114406969E+04      0.7296603319E+04      0.2676340536E+02     -0.3067988372E+01
          0                 2           2           263   79     1       0.2600840315E+00     348  263    1       0.1109028190E+03      0.7333391526E+03      0.7296603319E+04      0.2600840315E+00
          0                 3           2           263   79     1       0.1298124640E-01     348  263    1       0.5541162377E+01      0.3669890458E+02      0.7333391526E+03      0.1298124640E-01

    ------------------------------------------------
       NWT REQUIRED            3 OUTER ITERATIONS 
       AND A TOTAL OF          7 INNER ITERATIONS.
    ------------------------------------------------

 NO OUTPUT CONTROL FOR STRESS PERIOD   73   TIME STEP    1

 WELLS WITH REDUCED PUMPING FOR STRESS PERIOD    73 TIME STEP     1
   LAY   ROW   COL         APPL.Q          ACT.Q        GW-HEAD       CELL-BOT
     1    77   213  -0.728135E+03  -0.425301E+03   0.154657E+03   0.148000E+03
     1    92    77  -0.728135E+03  -0.419470E+03  -0.797214E+02  -0.930000E+02
     1    94    77  -0.728135E+03  -0.186611E+03  -0.945110E+02  -0.102000E+03
     1    94    73  -0.728135E+03  -0.225985E+03  -0.665187E+02  -0.740000E+02


 SOLVING FOR HEAD 
                                                   Max.-Head-Change                        Max.-Flux-Residual
  Residual-Control   Outer-Iter.   Inner-Iter.     Column Row Layer    Max.-Head-Change    Column Row Layer    Max.-Flux-Residual            L2-New               L2-Old           Solver-Max-Delh
          0                 1           3           263   79     1      -0.1226960069E+01     139  122    1       0.6775093194E+03      0.4602580609E+04      0.3669890458E+02     -0.1226960069E+01
          0                 2           2           263   79     1       0.1054670520E+00     139  122    1      -0.6776135381E+02      0.4599175138E+03      0.4602580609E+04      0.1054670520E+00
          0                 3           2           457  453     1       0.6824816603E-02     139  122    1      -0.3388142863E+01      0.2299722757E+02      0.4599175138E+03      0.6824816603E-02

    ------------------------------------------------
       NWT REQUIRED            3 OUTER ITERATIONS 
       AND A TOTAL OF          7 INNER ITERATIONS.
    ------------------------------------------------

 NO OUTPUT CONTROL FOR STRESS PERIOD   73   TIME STEP    2

 WELLS WITH REDUCED PUMPING FOR STRESS PERIOD    73 TIME STEP     2
   LAY   ROW   COL         APPL.Q          ACT.Q        GW-HEAD       CELL-BOT
     1    77   213  -0.728135E+03  -0.434676E+03   0.154762E+03   0.148000E+03
     1    92    77  -0.728135E+03  -0.411694E+03  -0.798946E+02  -0.930000E+02
     1    94    77  -0.728135E+03  -0.189218E+03  -0.944502E+02  -0.102000E+03
     1    94    73  -0.728135E+03  -0.229624E+03  -0.664467E+02  -0.740000E+02


 SOLVING FOR HEAD 
                                                   Max.-Head-Change                        Max.-Flux-Residual
  Residual-Control   Outer-Iter.   Inner-Iter.     Column Row Layer    Max.-Head-Change    Column Row Layer    Max.-Flux-Residual            L2-New               L2-Old           Solver-Max-Delh
          0                 1           3           263   79     1      -0.4974251575E+00     139  122    1       0.6576075233E+03      0.4002917183E+04      0.2299722757E+02     -0.4974251575E+00
          0                 2           2           263   79     1       0.4293192359E-01     139  122    1      -0.6577073822E+02      0.4003625221E+03      0.4002917183E+04      0.4293192359E-01

    ------------------------------------------------
       NWT REQUIRED            2 OUTER ITERATIONS 
       AND A TOTAL OF          5 INNER ITERATIONS.
    ------------------------------------------------

 NO OUTPUT CONTROL FOR STRESS PERIOD   73   TIME STEP    3

 WELLS WITH REDUCED PUMPING FOR STRESS PERIOD    73 TIME STEP     3
   LAY   ROW   COL         APPL.Q          ACT.Q        GW-HEAD       CELL-BOT
     1    77   213  -0.728135E+03  -0.443684E+03   0.154862E+03   0.148000E+03
     1    92    77  -0.728135E+03  -0.405883E+03  -0.800237E+02  -0.930000E+02
     1    94    77  -0.728135E+03  -0.191802E+03  -0.943902E+02  -0.102000E+03
     1    94    73  -0.728135E+03  -0.233219E+03  -0.663760E+02  -0.740000E+02


 SOLVING FOR HEAD 
                                                   Max.-Head-Change                        Max.-Flux-Residual
  Residual-Control   Outer-Iter.   Inner-Iter.     Column Row Layer    Max.-Head-Change    Column Row Layer    Max.-Flux-Residual            L2-New               L2-Old           Solver-Max-Delh
          0                 1           3           343  217     1       0.2992888804E+00     197   82    1       0.6451051464E+03      0.3691863214E+04      0.4003625221E+03      0.2992888804E+00
          0                 2           2           343  217     1      -0.2593590219E-01     197   82    1      -0.6451893485E+02      0.3692862601E+03      0.3691863214E+04     -0.2593590219E-01

    ------------------------------------------------
       NWT REQUIRED            2 OUTER ITERATIONS 
       AND A TOTAL OF          5 INNER ITERATIONS.
    ------------------------------------------------

 NO OUTPUT CONTROL FOR STRESS PERIOD   73   TIME STEP    4

 WELLS WITH REDUCED PUMPING FOR STRESS PERIOD    73 TIME STEP     4
   LAY   ROW   COL         APPL.Q          ACT.Q        GW-HEAD       CELL-BOT
     1    77   213  -0.728135E+03  -0.452295E+03   0.154959E+03   0.148000E+03
     1    92    77  -0.728135E+03  -0.401558E+03  -0.801196E+02  -0.930000E+02
     1    94    77  -0.728135E+03  -0.194349E+03  -0.943312E+02  -0.102000E+03
     1    94    73  -0.728135E+03  -0.236753E+03  -0.663066E+02  -0.740000E+02


 SOLVING FOR HEAD 
                                                   Max.-Head-Change                        Max.-Flux-Residual
  Residual-Control   Outer-Iter.   Inner-Iter.     Column Row Layer    Max.-Head-Change    Column Row Layer    Max.-Flux-Residual            L2-New               L2-Old           Solver-Max-Delh
          0                 1           3           197   82     1       0.2604366288E+00     197   82    1       0.6347136154E+03      0.3492185667E+04      0.3692862601E+03      0.2604366288E+00
          0                 2           2           197   82     1      -0.2249463701E-01     197   82    1      -0.6347957096E+02      0.3492445732E+03      0.3492185667E+04     -0.2249463701E-01

    ------------------------------------------------
       NWT REQUIRED            2 OUTER ITERATIONS 
       AND A TOTAL OF          5 INNER ITERATIONS.
    ------------------------------------------------

 NO OUTPUT CONTROL FOR STRESS PERIOD   73   TIME STEP    5

 WELLS WITH REDUCED PUMPING FOR STRESS PERIOD    73 TIME STEP     5
   LAY   ROW   COL         APPL.Q          ACT.Q        GW-HEAD       CELL-BOT
     1    77   213  -0.728135E+03  -0.460524E+03   0.155052E+03   0.148000E+03
     1    92    77  -0.728135E+03  -0.398329E+03  -0.801912E+02  -0.930000E+02
     1    94    77  -0.728135E+03  -0.196862E+03  -0.942733E+02  -0.102000E+03
     1    94    73  -0.728135E+03  -0.240225E+03  -0.662388E+02  -0.740000E+02


 SOLVING FOR HEAD 
                                                   Max.-Head-Change                        Max.-Flux-Residual
  Residual-Control   Outer-Iter.   Inner-Iter.     Column Row Layer    Max.-Head-Change    Column Row Layer    Max.-Flux-Residual            L2-New               L2-Old           Solver-Max-Delh
          0                 1           3           197   82     1       0.2562550448E+00     197   82    1       0.6245093557E+03      0.3348463074E+04      0.3492445732E+03      0.2562550448E+00
          0                 2           2           197   82     1      -0.2213344085E-01     197   82    1      -0.6245894177E+02      0.3348573837E+03      0.3348463074E+04     -0.2213344085E-01

    ------------------------------------------------
       NWT REQUIRED            2 OUTER ITERATIONS 
       AND A TOTAL OF          5 INNER ITERATIONS.
    ------------------------------------------------

 NO OUTPUT CONTROL FOR STRESS PERIOD   73   TIME STEP    6

 WELLS WITH REDUCED PUMPING FOR STRESS PERIOD    73 TIME STEP     6
   LAY   ROW   COL         APPL.Q          ACT.Q        GW-HEAD       CELL-BOT
     1    77   213  -0.728135E+03  -0.468387E+03   0.155141E+03   0.148000E+03
     1    92    77  -0.728135E+03  -0.395907E+03  -0.802449E+02  -0.930000E+02
     1    94    77  -0.728135E+03  -0.199338E+03  -0.942164E+02  -0.102000E+03
     1    94    73  -0.728135E+03  -0.243635E+03  -0.661723E+02  -0.740000E+02


 SOLVING FOR HEAD 
                                                   Max.-Head-Change                        Max.-Flux-Residual
  Residual-Control   Outer-Iter.   Inner-Iter.     Column Row Layer    Max.-Head-Change    Column Row Layer    Max.-Flux-Residual            L2-New               L2-Old           Solver-Max-Delh
          0                 1           3           197   82     1       0.2521491690E+00     197   82    1       0.6144895757E+03      0.3237497369E+04      0.3348573837E+03      0.2521491690E+00
          0                 2           2           197   82     1      -0.2177878493E-01     197   82    1      -0.6145676647E+02      0.3237579806E+03      0.3237497369E+04     -0.2177878493E-01

    ------------------------------------------------
       NWT REQUIRED            2 OUTER ITERATIONS 
       AND A TOTAL OF          5 INNER ITERATIONS.
    ------------------------------------------------

 NO OUTPUT CONTROL FOR STRESS PERIOD   73   TIME STEP    7

 WELLS WITH REDUCED PUMPING FOR STRESS PERIOD    73 TIME STEP     7
   LAY   ROW   COL         APPL.Q          ACT.Q        GW-HEAD       CELL-BOT
     1    77   213  -0.728135E+03  -0.475899E+03   0.155227E+03   0.148000E+03
     1    92    77  -0.728135E+03  -0.394077E+03  -0.802854E+02  -0.930000E+02
     1    94    77  -0.728135E+03  -0.201778E+03  -0.941605E+02  -0.102000E+03
     1    94    73  -0.728135E+03  -0.246985E+03  -0.661072E+02  -0.740000E+02


 SOLVING FOR HEAD 
                                                   Max.-Head-Change                        Max.-Flux-Residual
  Residual-Control   Outer-Iter.   Inner-Iter.     Column Row Layer    Max.-Head-Change    Column Row Layer    Max.-Flux-Residual            L2-New               L2-Old           Solver-Max-Delh
          0                 1           3           197   82     1       0.2481174969E+00     197   82    1       0.6046508415E+03      0.3147677317E+04      0.3237579806E+03      0.2481174969E+00
          0                 2           2           197   82     1      -0.2143053908E-01     197   82    1      -0.6047270101E+02      0.3147737544E+03      0.3147677317E+04     -0.2143053908E-01

    ------------------------------------------------
       NWT REQUIRED            2 OUTER ITERATIONS 
       AND A TOTAL OF          5 INNER ITERATIONS.
    ------------------------------------------------

 NO OUTPUT CONTROL FOR STRESS PERIOD   73   TIME STEP    8

 WELLS WITH REDUCED PUMPING FOR STRESS PERIOD    73 TIME STEP     8
   LAY   ROW   COL         APPL.Q          ACT.Q        GW-HEAD       CELL-BOT
     1    77   213  -0.728135E+03  -0.483075E+03   0.155309E+03   0.148000E+03
     1    92    77  -0.728135E+03  -0.392683E+03  -0.803162E+02  -0.930000E+02
     1    94    77  -0.728135E+03  -0.204183E+03  -0.941056E+02  -0.102000E+03
     1    94    73  -0.728135E+03  -0.250273E+03  -0.660435E+02  -0.740000E+02


 SOLVING FOR HEAD 
                                                   Max.-Head-Change                        Max.-Flux-Residual
  Residual-Control   Outer-Iter.   Inner-Iter.     Column Row Layer    Max.-Head-Change    Column Row Layer    Max.-Flux-Residual            L2-New               L2-Old           Solver-Max-Delh
          0                 1           3           197   82     1       0.2441586407E+00     197   82    1       0.5949898602E+03      0.3072512646E+04      0.3147737544E+03      0.2441586407E+00
          0                 2           2           197   82     1      -0.2108858334E-01     197   82    1      -0.5950641574E+02      0.3072514966E+03      0.3072512646E+04     -0.2108858334E-01

    ------------------------------------------------
       NWT REQUIRED            2 OUTER ITERATIONS 
       AND A TOTAL OF          5 INNER ITERATIONS.
    ------------------------------------------------

 NO OUTPUT CONTROL FOR STRESS PERIOD   73   TIME STEP    9

 WELLS WITH REDUCED PUMPING FOR STRESS PERIOD    73 TIME STEP     9
   LAY   ROW   COL         APPL.Q          ACT.Q        GW-HEAD       CELL-BOT
     1    77   213  -0.728135E+03  -0.489929E+03   0.155389E+03   0.148000E+03
     1    92    77  -0.728135E+03  -0.391609E+03  -0.803400E+02  -0.930000E+02
     1    94    77  -0.728135E+03  -0.206553E+03  -0.940517E+02  -0.102000E+03
     1    94    73  -0.728135E+03  -0.253502E+03  -0.659812E+02  -0.740000E+02


 SOLVING FOR HEAD 
                                                   Max.-Head-Change                        Max.-Flux-Residual
  Residual-Control   Outer-Iter.   Inner-Iter.     Column Row Layer    Max.-Head-Change    Column Row Layer    Max.-Flux-Residual            L2-New               L2-Old           Solver-Max-Delh
          0                 1           3           197   82     1       0.2402711486E+00     197   82    1       0.5855031299E+03      0.3008043880E+04      0.3072514966E+03      0.2402711486E+00
          0                 2           2           197   82     1      -0.2075279225E-01     197   82    1      -0.5855756025E+02      0.3008038333E+03      0.3008043880E+04     -0.2075279225E-01

    ------------------------------------------------
       NWT REQUIRED            2 OUTER ITERATIONS 
       AND A TOTAL OF          5 INNER ITERATIONS.
    ------------------------------------------------

 OUTPUT CONTROL FOR STRESS PERIOD   73   TIME STEP   10
    SAVE HEAD FOR ALL LAYERS

 WELLS WITH REDUCED PUMPING FOR STRESS PERIOD    73 TIME STEP    10
   LAY   ROW   COL         APPL.Q          ACT.Q        GW-HEAD       CELL-BOT
     1    77   213  -0.728135E+03  -0.496477E+03   0.155465E+03   0.148000E+03
     1    92    77  -0.728135E+03  -0.390771E+03  -0.803585E+02  -0.930000E+02
     1    94    77  -0.728135E+03  -0.208886E+03  -0.939988E+02  -0.102000E+03
     1    94    73  -0.728135E+03  -0.256670E+03  -0.659201E+02  -0.740000E+02


 HEAD WILL BE SAVED ON UNIT   51 AT END OF TIME STEP   10, STRESS PERIOD   73
1
  VOLUMETRIC BUDGET FOR ENTIRE MODEL AT END OF TIME STEP   10, STRESS PERIOD  73
  ------------------------------------------------------------------------------

     CUMULATIVE VOLUMES      L**3       RATES FOR THIS TIME STEP      L**3/T
     ------------------                 ------------------------

           IN:                                      IN:
           ---                                      ---
             STORAGE =   701790848.0000               STORAGE =      139030.1719
       CONSTANT HEAD =   113232152.0000         CONSTANT HEAD =       52154.2148
               WELLS =           0.0000                 WELLS =           0.0000
              DRAINS =           0.0000                DRAINS =           0.0000
                  ET =           0.0000                    ET =           0.0000
            RECHARGE =   405074368.0000              RECHARGE =      119436.0078

            TOTAL IN =  1220097280.0000              TOTAL IN =      310620.4062

          OUT:                                     OUT:
          ----                                     ----
             STORAGE =   219016272.0000               STORAGE =       33646.6445
       CONSTANT HEAD =           0.0000         CONSTANT HEAD =           0.0000
               WELLS =   655568704.0000                 WELLS =      150658.1562
              DRAINS =   244203168.0000                DRAINS =       92079.1641
                  ET =    99295360.0000                    ET =       33712.6602
            RECHARGE =      525047.1875              RECHARGE =           0.0000

           TOTAL OUT =  1218608512.0000             TOTAL OUT =      310096.6250

            IN - OUT =     1488768.0000              IN - OUT =         523.7812

 PERCENT DISCREPANCY =           0.12     PERCENT DISCREPANCY =           0.17






         TIME SUMMARY AT END OF TIME STEP   10 IN STRESS PERIOD   73
                    SECONDS     MINUTES      HOURS       DAYS        YEARS
                    -----------------------------------------------------------
   TIME STEP LENGTH 2.62656E+05  4377.6      72.960      3.0400     8.32307E-03
 STRESS PERIOD TIME 2.62656E+06  43776.      729.60      30.400     8.32307E-02
         TOTAL TIME 1.91740E+08 3.19567E+06  53261.      2219.2      6.0759    
1
1
                            STRESS PERIOD NO.   74, LENGTH =   30.40000    
                            -----------------------------------------------

                              NUMBER OF TIME STEPS =    10

                               MULTIPLIER FOR DELT =     1.000

                            INITIAL TIME STEP SIZE =   3.040000    

 WELL NO.  LAYER   ROW   COL   STRESS RATE         
 --------------------------------------------------
      1      1     69    225      -6307.    
      2      1     71    224       0.000    
      3      1     74    220       0.000    
      4      1     73    220       0.000    
      5      1     71    223       0.000    
      6      1     71    223       0.000    
      7      1     72    223       0.000    
      8      1     92    173       0.000    
      9      1     94    174       0.000    
     10      1     93    175       0.000    
     11      1    203    328       0.000    
     12      1    438    460      -2947.    
     13      1    436    461      -2947.    
     14      1    410    454      -2947.    
     15      1    433    460      -2947.    
     16      1    431    462      -2947.    
     17      1    417    459      -2947.    
     18      1    418    458      -2947.    
     19      1    414    455      -2947.    
     20      1    443    464      -2947.    
     21      1    379    425      -2947.    
     22      1    362    405      -2947.    
     23      1    361    405      -2947.    
     24      1    362    406      -2947.    
     25      1    363    408      -2947.    
     26      1    364    410      -2947.    
     27      1    369    418      -2947.    
     28      1    367    417      -2947.    
     29      1    365    415      -2947.    
     30      1    402    447      -2947.    
     31      1    400    446      -2947.    
     32      1    392    444      -2947.    
     33      1    391    441      -2947.    
     34      1    403    448      -2947.    
     35      1    405    447      -2947.    
     36      1    362    410      -2947.    
     37      1    362    411      -2947.    
     38      1    363    412      -2947.    
     39      1    375    421      -2947.    
     40      1    383    430      -2947.    
     41      1    397    445      -2947.    
     42      1    360    403      -2947.    
     43      1    350    401      -2947.    
     44      1    346    393      -3965.    
     45      1    333    387      -3965.    
     46      1    328    384      -3965.    
     47      1    326    383      -3965.    
     48      1    323    378      -3965.    
     49      1    321    378      -3965.    
     50      1    322    376      -3965.    
     51      1    316    374      -3965.    
     52      1    311    371      -3965.    
     53      1    307    369      -3965.    
     54      1    305    368      -3965.    
     55      1    303    368      -3965.    
     56      1    300    369      -3965.    
     57      1    293    364      -3965.    
     58      1    292    362      -3965.    
     59      1    278    350      -3965.    
     60      1    274    351      -3965.    
     61      1    273    350      -3965.    
     62      1    271    350      -3965.    
     63      1    267    348      -3965.    
     64      1    263    348      -3965.    
     65      1    263    348      -3965.    
     66      1    248    347      -3965.    
     67      1    243    342      -3965.    
     68      1    242    339      -3965.    
     69      1    238    341      -3965.    
     70      1    233    340      -3965.    
     71      1    232    340      -3965.    
     72      1    229    341      -3965.    
     73      1    227    341      -3965.    
     74      1    219    342      -3965.    
     75      1    219    336      -3965.    
     76      1    199    329      -3965.    
     77      1    191    332      -5038.    
     78      1    190    332      -5038.    
     79      1    130    310      -5038.    
     80      1    123    305      -5038.    
     81      1    104    289      -5038.    
     82      1     96    287      -4290.    
     83      1     95    284      -4290.    
     84      1     95    280      -4290.    
     85      1     93    276      -4290.    
     86      1     94    275      -4290.    
     87      1     90    277      -4290.    
     88      1     90    273      -4290.    
     89      1     86    271      -4290.    
     90      1     85    270      -4290.    
     91      1     84    265      -4290.    
     92      1     85    265      -4290.    
     93      1     84    264      -4290.    
     94      1     79    263      -4290.    
     95      1     79    263      -4290.    
     96      1     76    262      -4290.    
     97      1     73    257      -4290.    
     98      1     74    255      -4290.    
     99      1     71    255      -4290.    
    100      1     66    253      -4290.    
    101      1     68    252      -4290.    
    102      1     69    250      -4290.    
    103      1     65    248      -4290.    
    104      1     68    248      -4290.    
    105      1     69    247      -4290.    
    106      1     73    247      -4290.    
    107      1     64    246      -4290.    
    108      1     69    245      -4290.    
    109      1     72    245      -4290.    
    110      1     69    241      -4290.    
    111      1     73    238      -4290.    
    112      1     70    238      -4290.    
    113      1     76    263      -4290.    
    114      1     66    232      -2310.    
    115      1     69    229      -2310.    
    116      1     71    228      -2310.    
    117      1     69    227      -2310.    
    118      1     72    219      -2310.    
    119      1     72    218      -2310.    
    120      1     72    218      -2310.    
    121      1     73    217      -2310.    
    122      1     77    219      -2310.    
    123      1     78    219      -2310.    
    124      1     83    213      -2310.    
    125      1     77    213      -2310.    
    126      1     81    211      -2310.    
    127      1     81    210      -2310.    
    128      1     81    210      -2310.    
    129      1     82    208      -2310.    
    130      1     80    205      -2310.    
    131      1     86    202      -2310.    
    132      1     84    200      -2310.    
    133      1     89    200      -2310.    
    134      1     89    199      -2310.    
    135      1     88    199      -2310.    
    136      1     86    199      -2310.    
    137      1     85    199      -2310.    
    138      1     82    197      -2310.    
    139      1     86    197      -2310.    
    140      1     88    198      -2310.    
    141      1     90    192      -2310.    
    142      1     89    191      -2310.    
    143      1     84    192      -2310.    
    144      1     91    189      -2310.    
    145      1     92    185      -2310.    
    146      1     87    183      -2310.    
    147      1     92    182      -2310.    
    148      1     90    182      -2310.    
    149      1     88    179      -2310.    
    150      1     89    176      -2310.    
    151      1     92    172      -2310.    
    152      1     93    164      -2310.    
    153      1     94    162      -2310.    
    154      1    103    156      -2310.    
    155      1    103    156      -2310.    
    156      1     96    154      -2310.    
    157      1     97    153      -2310.    
    158      1    122    139      -2310.    
    159      1     92     77      -2310.    
    160      1     94     77      -2310.    
    161      1     94     73      -2310.    
    162      1     97    152      -2310.    
    163      1    118    337      -666.7    
    164      1    133    319      -2678.    
    165      1    131    320      -3951.    
    166      1    133    321      -2956.    
    167      1    161    329      -2141.    
    168      1    178    330      -551.0    
    169      1    163    330      -1122.    
    170      1    131    320      -2473.    
    171      1    129    315      -3937.    
    172      1    162    329      -1959.    
    173      1    131    311      -826.1    
    174      1    221    340      -1994.    
    175      1    220    340      -1034.    
    176      1    221    340      -667.7    
    177      1    137    322      -2082.    
    178      1    137    321      -1407.    
    179      1    185    329      -2012.    
    180      1    183    329      -1473.    
    181      1    175    329      -585.3    
    182      1     79    243      -1490.    
    183      1     77    245      -2414.    
    184      1    199    329      -1617.    
    185      1    198    330      -2514.    
    186      1    140    328      -972.1    
    187      1    143    327      -863.6    
    188      1    139    327      -1331.    

    188 WELLS

 REUSING NON-PARAMETER DRAINS FROM LAST STRESS PERIOD

   1061 DRAINS

 REUSING SURF FROM LAST STRESS PERIOD

 REUSING EVTR FROM LAST STRESS PERIOD

 REUSING EXDP FROM LAST STRESS PERIOD



                           RECHARGE
 READING ON UNIT   19 WITH FORMAT: (510E15.6)          

 SOLVING FOR HEAD 
                                                   Max.-Head-Change                        Max.-Flux-Residual
  Residual-Control   Outer-Iter.   Inner-Iter.     Column Row Layer    Max.-Head-Change    Column Row Layer    Max.-Flux-Residual            L2-New               L2-Old           Solver-Max-Delh
          0                 1           3           263   79     1      -0.1987555449E+02     348  263    1      -0.6597804536E+04      0.3105129055E+05      0.3008038333E+03     -0.1987555449E+02
          0                 2           2           263   79     1       0.1497350336E+01     238   70    1       0.8073417485E+03      0.3176598820E+04      0.3105129055E+05      0.1497350336E+01
          0                 3           2           263   79     1       0.7302309341E-01     238   70    1       0.4032359112E+02      0.1600270190E+03      0.3176598820E+04      0.7302309341E-01

    ------------------------------------------------
       NWT REQUIRED            3 OUTER ITERATIONS 
       AND A TOTAL OF          7 INNER ITERATIONS.
    ------------------------------------------------

 NO OUTPUT CONTROL FOR STRESS PERIOD   74   TIME STEP    1

 WELLS WITH REDUCED PUMPING FOR STRESS PERIOD    74 TIME STEP     1
   LAY   ROW   COL         APPL.Q          ACT.Q        GW-HEAD       CELL-BOT
     1    77   213  -0.230952E+04  -0.149399E+04   0.155171E+03   0.148000E+03
     1    92    77  -0.230952E+04  -0.815180E+03  -0.833425E+02  -0.930000E+02
     1    94    77  -0.230952E+04  -0.647788E+03  -0.941045E+02  -0.102000E+03
     1    94    73  -0.230952E+04  -0.792047E+03  -0.660544E+02  -0.740000E+02


 SOLVING FOR HEAD 
                                                   Max.-Head-Change                        Max.-Flux-Residual
  Residual-Control   Outer-Iter.   Inner-Iter.     Column Row Layer    Max.-Head-Change    Column Row Layer    Max.-Flux-Residual            L2-New               L2-Old           Solver-Max-Delh
          0                 1           3           263   79     1      -0.8693257367E+01     374  316    1      -0.2770407331E+04      0.1470960457E+05      0.1600270190E+03     -0.8693257367E+01
          0                 2           3           263   79     1       0.6901002241E+00     374  316    1       0.2768232085E+03      0.1460778330E+04      0.1470960457E+05      0.6901002241E+00
          0                 3           2           263   79     1       0.3396636485E-01     374  316    1       0.1383953221E+02      0.7360853297E+02      0.1460778330E+04      0.3396636485E-01

    ------------------------------------------------
       NWT REQUIRED            3 OUTER ITERATIONS 
       AND A TOTAL OF          8 INNER ITERATIONS.
    ------------------------------------------------

 NO OUTPUT CONTROL FOR STRESS PERIOD   74   TIME STEP    2

 WELLS WITH REDUCED PUMPING FOR STRESS PERIOD    74 TIME STEP     2
   LAY   ROW   COL         APPL.Q          ACT.Q        GW-HEAD       CELL-BOT
     1    77   213  -0.230952E+04  -0.141988E+04   0.154907E+03   0.148000E+03
     1    92    77  -0.230952E+04  -0.618330E+03  -0.848131E+02  -0.930000E+02
     1    94    77  -0.230952E+04  -0.633853E+03  -0.942049E+02  -0.102000E+03
     1    94    73  -0.230952E+04  -0.771404E+03  -0.661807E+02  -0.740000E+02


 SOLVING FOR HEAD 
                                                   Max.-Head-Change                        Max.-Flux-Residual
  Residual-Control   Outer-Iter.   Inner-Iter.     Column Row Layer    Max.-Head-Change    Column Row Layer    Max.-Flux-Residual            L2-New               L2-Old           Solver-Max-Delh
          0                 1           3           263   79     1      -0.4169668430E+01     374  316    1      -0.2486507233E+04      0.1163461629E+05      0.7360853297E+02     -0.4169668430E+01
          0                 2           2           263   79     1       0.3425747675E+00     374  316    1       0.2484375422E+03      0.1173614347E+04      0.1163461629E+05      0.3425747675E+00
          0                 3           2           263   79     1       0.1696686650E-01     374  316    1       0.1242028120E+02      0.5865386899E+02      0.1173614347E+04      0.1696686650E-01

    ------------------------------------------------
       NWT REQUIRED            3 OUTER ITERATIONS 
       AND A TOTAL OF          7 INNER ITERATIONS.
    ------------------------------------------------

 NO OUTPUT CONTROL FOR STRESS PERIOD   74   TIME STEP    3

 WELLS WITH REDUCED PUMPING FOR STRESS PERIOD    74 TIME STEP     3
   LAY   ROW   COL         APPL.Q          ACT.Q        GW-HEAD       CELL-BOT
     1    77   213  -0.230952E+04  -0.135235E+04   0.154669E+03   0.148000E+03
     1    92    77  -0.230952E+04  -0.524417E+03  -0.855590E+02  -0.930000E+02
     1    94    77  -0.230952E+04  -0.620695E+03  -0.943003E+02  -0.102000E+03
     1    94    73  -0.230952E+04  -0.752088E+03  -0.662996E+02  -0.740000E+02


 SOLVING FOR HEAD 
                                                   Max.-Head-Change                        Max.-Flux-Residual
  Residual-Control   Outer-Iter.   Inner-Iter.     Column Row Layer    Max.-Head-Change    Column Row Layer    Max.-Flux-Residual            L2-New               L2-Old           Solver-Max-Delh
          0                 1           3           263   79     1      -0.2236542943E+01     374  316    1      -0.2237721550E+04      0.1019667951E+05      0.5865386899E+02     -0.2236542943E+01
          0                 2           2           263   79     1       0.1874595330E+00     374  316    1       0.2235714969E+03      0.1026334601E+04      0.1019667951E+05      0.1874595330E+00
          0                 3           2           263   79     1       0.9318837834E-02     374  316    1       0.1117707514E+02      0.5130402258E+02      0.1026334601E+04      0.9318837834E-02

    ------------------------------------------------
       NWT REQUIRED            3 OUTER ITERATIONS 
       AND A TOTAL OF          7 INNER ITERATIONS.
    ------------------------------------------------

 NO OUTPUT CONTROL FOR STRESS PERIOD   74   TIME STEP    4

 WELLS WITH REDUCED PUMPING FOR STRESS PERIOD    74 TIME STEP     4
   LAY   ROW   COL         APPL.Q          ACT.Q        GW-HEAD       CELL-BOT
     1    77   213  -0.230952E+04  -0.129116E+04   0.154456E+03   0.148000E+03
     1    92    77  -0.230952E+04  -0.477833E+03  -0.859444E+02  -0.930000E+02
     1    94    77  -0.230952E+04  -0.608268E+03  -0.943909E+02  -0.102000E+03
     1    94    73  -0.230952E+04  -0.734007E+03  -0.664115E+02  -0.740000E+02


 SOLVING FOR HEAD 
                                                   Max.-Head-Change                        Max.-Flux-Residual
  Residual-Control   Outer-Iter.   Inner-Iter.     Column Row Layer    Max.-Head-Change    Column Row Layer    Max.-Flux-Residual            L2-New               L2-Old           Solver-Max-Delh
          0                 1           3           263   79     1      -0.1354851406E+01     378  321    1      -0.2024493390E+04      0.9335587754E+04      0.5130402258E+02     -0.1354851406E+01
          0                 2           2           263   79     1       0.1148492491E+00     378  321    1       0.2022550579E+03      0.9333117395E+03      0.9335587754E+04      0.1148492491E+00
          0                 3           2           232   92     1       0.6094939930E-02     378  321    1       0.1011129938E+02      0.4666187121E+02      0.9333117395E+03      0.6094939930E-02

    ------------------------------------------------
       NWT REQUIRED            3 OUTER ITERATIONS 
       AND A TOTAL OF          7 INNER ITERATIONS.
    ------------------------------------------------

 NO OUTPUT CONTROL FOR STRESS PERIOD   74   TIME STEP    5

 WELLS WITH REDUCED PUMPING FOR STRESS PERIOD    74 TIME STEP     5
   LAY   ROW   COL         APPL.Q          ACT.Q        GW-HEAD       CELL-BOT
     1    77   213  -0.230952E+04  -0.123592E+04   0.154264E+03   0.148000E+03
     1    92    77  -0.230952E+04  -0.454094E+03  -0.861455E+02  -0.930000E+02
     1    94    77  -0.230952E+04  -0.596524E+03  -0.944770E+02  -0.102000E+03
     1    94    73  -0.230952E+04  -0.717075E+03  -0.665169E+02  -0.740000E+02


 SOLVING FOR HEAD 
                                                   Max.-Head-Change                        Max.-Flux-Residual
  Residual-Control   Outer-Iter.   Inner-Iter.     Column Row Layer    Max.-Head-Change    Column Row Layer    Max.-Flux-Residual            L2-New               L2-Old           Solver-Max-Delh
          0                 1           3           264   78     1      -0.9789336999E+00     378  321    1      -0.1856957413E+04      0.8753061166E+04      0.4666187121E+02     -0.9789336999E+00
          0                 2           2           264   78     1       0.8324174405E-01     378  321    1       0.1855098210E+03      0.8781055633E+03      0.8753061166E+04      0.8324174405E-01

    ------------------------------------------------
       NWT REQUIRED            2 OUTER ITERATIONS 
       AND A TOTAL OF          5 INNER ITERATIONS.
    ------------------------------------------------

 NO OUTPUT CONTROL FOR STRESS PERIOD   74   TIME STEP    6

 WELLS WITH REDUCED PUMPING FOR STRESS PERIOD    74 TIME STEP     6
   LAY   ROW   COL         APPL.Q          ACT.Q        GW-HEAD       CELL-BOT
     1    77   213  -0.230952E+04  -0.118595E+04   0.154091E+03   0.148000E+03
     1    92    77  -0.230952E+04  -0.441754E+03  -0.862515E+02  -0.930000E+02
     1    94    77  -0.230952E+04  -0.585370E+03  -0.945592E+02  -0.102000E+03
     1    94    73  -0.230952E+04  -0.701137E+03  -0.666166E+02  -0.740000E+02


 SOLVING FOR HEAD 
                                                   Max.-Head-Change                        Max.-Flux-Residual
  Residual-Control   Outer-Iter.   Inner-Iter.     Column Row Layer    Max.-Head-Change    Column Row Layer    Max.-Flux-Residual            L2-New               L2-Old           Solver-Max-Delh
          0                 1           3           264   78     1      -0.8421988777E+00     378  321    1      -0.1708041555E+04      0.8328585715E+04      0.4390073164E+02     -0.8421988777E+00
          0                 2           2           264   78     1       0.7162766154E-01     378  321    1       0.1706294321E+03      0.8323860092E+03      0.8328585715E+04      0.7162766154E-01

    ------------------------------------------------
       NWT REQUIRED            2 OUTER ITERATIONS 
       AND A TOTAL OF          5 INNER ITERATIONS.
    ------------------------------------------------

 NO OUTPUT CONTROL FOR STRESS PERIOD   74   TIME STEP    7

 WELLS WITH REDUCED PUMPING FOR STRESS PERIOD    74 TIME STEP     7
   LAY   ROW   COL         APPL.Q          ACT.Q        GW-HEAD       CELL-BOT
     1    77   213  -0.230952E+04  -0.114107E+04   0.153936E+03   0.148000E+03
     1    92    77  -0.230952E+04  -0.435350E+03  -0.863069E+02  -0.930000E+02
     1    94    77  -0.230952E+04  -0.574824E+03  -0.946374E+02  -0.102000E+03
     1    94    73  -0.230952E+04  -0.686206E+03  -0.667106E+02  -0.740000E+02


 SOLVING FOR HEAD 
                                                   Max.-Head-Change                        Max.-Flux-Residual
  Residual-Control   Outer-Iter.   Inner-Iter.     Column Row Layer    Max.-Head-Change    Column Row Layer    Max.-Flux-Residual            L2-New               L2-Old           Solver-Max-Delh
          0                 1           3           264   78     1      -0.7256148102E+00     378  321    1      -0.1575994213E+04      0.8007489278E+04      0.4161625905E+02     -0.7256148102E+00
          0                 2           2           264   78     1       0.6179195347E-01     378  321    1       0.1574371293E+03      0.8004310306E+03      0.8007489278E+04      0.6179195347E-01

    ------------------------------------------------
       NWT REQUIRED            2 OUTER ITERATIONS 
       AND A TOTAL OF          5 INNER ITERATIONS.
    ------------------------------------------------

 NO OUTPUT CONTROL FOR STRESS PERIOD   74   TIME STEP    8

 WELLS WITH REDUCED PUMPING FOR STRESS PERIOD    74 TIME STEP     8
   LAY   ROW   COL         APPL.Q          ACT.Q        GW-HEAD       CELL-BOT
     1    77   213  -0.230952E+04  -0.110082E+04   0.153797E+03   0.148000E+03
     1    92    77  -0.230952E+04  -0.432025E+03  -0.863357E+02  -0.930000E+02
     1    94    77  -0.230952E+04  -0.564849E+03  -0.947118E+02  -0.102000E+03
     1    94    73  -0.230952E+04  -0.672209E+03  -0.667992E+02  -0.740000E+02


 SOLVING FOR HEAD 
                                                   Max.-Head-Change                        Max.-Flux-Residual
  Residual-Control   Outer-Iter.   Inner-Iter.     Column Row Layer    Max.-Head-Change    Column Row Layer    Max.-Flux-Residual            L2-New               L2-Old           Solver-Max-Delh
          0                 1           3           343  217     1      -0.6697286403E+00     378  321    1      -0.1458575026E+04      0.7756819340E+04      0.4001920565E+02     -0.6697286403E+00
          0                 2           2           343  217     1       0.5743140449E-01     378  321    1       0.1457079170E+03      0.7755248486E+03      0.7756819340E+04      0.5743140449E-01

    ------------------------------------------------
       NWT REQUIRED            2 OUTER ITERATIONS 
       AND A TOTAL OF          5 INNER ITERATIONS.
    ------------------------------------------------

 NO OUTPUT CONTROL FOR STRESS PERIOD   74   TIME STEP    9

 WELLS WITH REDUCED PUMPING FOR STRESS PERIOD    74 TIME STEP     9
   LAY   ROW   COL         APPL.Q          ACT.Q        GW-HEAD       CELL-BOT
     1    77   213  -0.230952E+04  -0.106475E+04   0.153672E+03   0.148000E+03
     1    92    77  -0.230952E+04  -0.430309E+03  -0.863507E+02  -0.930000E+02
     1    94    77  -0.230952E+04  -0.555409E+03  -0.947825E+02  -0.102000E+03
     1    94    73  -0.230952E+04  -0.659085E+03  -0.668827E+02  -0.740000E+02


 SOLVING FOR HEAD 
                                                   Max.-Head-Change                        Max.-Flux-Residual
  Residual-Control   Outer-Iter.   Inner-Iter.     Column Row Layer    Max.-Head-Change    Column Row Layer    Max.-Flux-Residual            L2-New               L2-Old           Solver-Max-Delh
          0                 1           3           343  217     1      -0.6260909561E+00     378  321    1      -0.1353884246E+04      0.7557048222E+04      0.3877440523E+02     -0.6260909561E+00
          0                 2           2           343  217     1       0.5370761881E-01     378  321    1       0.1352512530E+03      0.7579232684E+03      0.7557048222E+04      0.5370761881E-01

    ------------------------------------------------
       NWT REQUIRED            2 OUTER ITERATIONS 
       AND A TOTAL OF          5 INNER ITERATIONS.
    ------------------------------------------------

 OUTPUT CONTROL FOR STRESS PERIOD   74   TIME STEP   10
    SAVE HEAD FOR ALL LAYERS

 WELLS WITH REDUCED PUMPING FOR STRESS PERIOD    74 TIME STEP    10
   LAY   ROW   COL         APPL.Q          ACT.Q        GW-HEAD       CELL-BOT
     1    77   213  -0.230952E+04  -0.103244E+04   0.153560E+03   0.148000E+03
     1    92    77  -0.230952E+04  -0.429436E+03  -0.863583E+02  -0.930000E+02
     1    94    77  -0.230952E+04  -0.546474E+03  -0.948498E+02  -0.102000E+03
     1    94    73  -0.230952E+04  -0.646772E+03  -0.669615E+02  -0.740000E+02


 HEAD WILL BE SAVED ON UNIT   51 AT END OF TIME STEP   10, STRESS PERIOD   74
1
  VOLUMETRIC BUDGET FOR ENTIRE MODEL AT END OF TIME STEP   10, STRESS PERIOD  74
  ------------------------------------------------------------------------------

     CUMULATIVE VOLUMES      L**3       RATES FOR THIS TIME STEP      L**3/T
     ------------------                 ------------------------

           IN:                                      IN:
           ---                                      ---
             STORAGE =   713928128.0000               STORAGE =      391238.4062
       CONSTANT HEAD =   114817680.0000         CONSTANT HEAD =       52156.7500
               WELLS =           0.0000                 WELLS =           0.0000
              DRAINS =           0.0000                DRAINS =           0.0000
                  ET =           0.0000                    ET =           0.0000
            RECHARGE =   409803648.0000              RECHARGE =      155567.5625

            TOTAL IN =  1238549504.0000              TOTAL IN =      598962.7500

          OUT:                                     OUT:
          ----                                     ----
             STORAGE =   219422752.0000               STORAGE =        9891.4199
       CONSTANT HEAD =           0.0000         CONSTANT HEAD =           0.0000
               WELLS =   669986048.0000                 WELLS =      473864.1875
              DRAINS =   246824752.0000                DRAINS =       82324.6719
                  ET =   100271512.0000                    ET =       30977.8457
            RECHARGE =      525047.1875              RECHARGE =           0.0000

           TOTAL OUT =  1237030016.0000             TOTAL OUT =      597058.1250

            IN - OUT =     1519488.0000              IN - OUT =        1904.6250

 PERCENT DISCREPANCY =           0.12     PERCENT DISCREPANCY =           0.32






         TIME SUMMARY AT END OF TIME STEP   10 IN STRESS PERIOD   74
                    SECONDS     MINUTES      HOURS       DAYS        YEARS
                    -----------------------------------------------------------
   TIME STEP LENGTH 2.62656E+05  4377.6      72.960      3.0400     8.32307E-03
 STRESS PERIOD TIME 2.62656E+06  43776.      729.60      30.400     8.32307E-02
         TOTAL TIME 1.94367E+08 3.23944E+06  53991.      2249.6      6.1591    
1
1
                            STRESS PERIOD NO.   75, LENGTH =   30.40000    
                            -----------------------------------------------

                              NUMBER OF TIME STEPS =    10

                               MULTIPLIER FOR DELT =     1.000

                            INITIAL TIME STEP SIZE =   3.040000    

 WELL NO.  LAYER   ROW   COL   STRESS RATE         
 --------------------------------------------------
      1      1     69    225      -6394.    
      2      1     71    224       0.000    
      3      1     74    220       0.000    
      4      1     73    220       0.000    
      5      1     71    223       0.000    
      6      1     71    223       0.000    
      7      1     72    223       0.000    
      8      1     92    173       0.000    
      9      1     94    174       0.000    
     10      1     93    175       0.000    
     11      1    203    328       0.000    
     12      1    438    460      -2558.    
     13      1    436    461      -2558.    
     14      1    410    454      -2558.    
     15      1    433    460      -2558.    
     16      1    431    462      -2558.    
     17      1    417    459      -2558.    
     18      1    418    458      -2558.    
     19      1    414    455      -2558.    
     20      1    443    464      -2558.    
     21      1    379    425      -2558.    
     22      1    362    405      -2558.    
     23      1    361    405      -2558.    
     24      1    362    406      -2558.    
     25      1    363    408      -2558.    
     26      1    364    410      -2558.    
     27      1    369    418      -2558.    
     28      1    367    417      -2558.    
     29      1    365    415      -2558.    
     30      1    402    447      -2558.    
     31      1    400    446      -2558.    
     32      1    392    444      -2558.    
     33      1    391    441      -2558.    
     34      1    403    448      -2558.    
     35      1    405    447      -2558.    
     36      1    362    410      -2558.    
     37      1    362    411      -2558.    
     38      1    363    412      -2558.    
     39      1    375    421      -2558.    
     40      1    383    430      -2558.    
     41      1    397    445      -2558.    
     42      1    360    403      -2558.    
     43      1    350    401      -2558.    
     44      1    346    393      -3641.    
     45      1    333    387      -3641.    
     46      1    328    384      -3641.    
     47      1    326    383      -3641.    
     48      1    323    378      -3641.    
     49      1    321    378      -3641.    
     50      1    322    376      -3641.    
     51      1    316    374      -3641.    
     52      1    311    371      -3641.    
     53      1    307    369      -3641.    
     54      1    305    368      -3641.    
     55      1    303    368      -3641.    
     56      1    300    369      -3641.    
     57      1    293    364      -3641.    
     58      1    292    362      -3641.    
     59      1    278    350      -3641.    
     60      1    274    351      -3641.    
     61      1    273    350      -3641.    
     62      1    271    350      -3641.    
     63      1    267    348      -3641.    
     64      1    263    348      -3641.    
     65      1    263    348      -3641.    
     66      1    248    347      -3641.    
     67      1    243    342      -3641.    
     68      1    242    339      -3641.    
     69      1    238    341      -3641.    
     70      1    233    340      -3641.    
     71      1    232    340      -3641.    
     72      1    229    341      -3641.    
     73      1    227    341      -3641.    
     74      1    219    342      -3641.    
     75      1    219    336      -3641.    
     76      1    199    329      -3641.    
     77      1    191    332      -4532.    
     78      1    190    332      -4532.    
     79      1    130    310      -4532.    
     80      1    123    305      -4532.    
     81      1    104    289      -4532.    
     82      1     96    287      -3788.    
     83      1     95    284      -3788.    
     84      1     95    280      -3788.    
     85      1     93    276      -3788.    
     86      1     94    275      -3788.    
     87      1     90    277      -3788.    
     88      1     90    273      -3788.    
     89      1     86    271      -3788.    
     90      1     85    270      -3788.    
     91      1     84    265      -3788.    
     92      1     85    265      -3788.    
     93      1     84    264      -3788.    
     94      1     79    263      -3788.    
     95      1     79    263      -3788.    
     96      1     76    262      -3788.    
     97      1     73    257      -3788.    
     98      1     74    255      -3788.    
     99      1     71    255      -3788.    
    100      1     66    253      -3788.    
    101      1     68    252      -3788.    
    102      1     69    250      -3788.    
    103      1     65    248      -3788.    
    104      1     68    248      -3788.    
    105      1     69    247      -3788.    
    106      1     73    247      -3788.    
    107      1     64    246      -3788.    
    108      1     69    245      -3788.    
    109      1     72    245      -3788.    
    110      1     69    241      -3788.    
    111      1     73    238      -3788.    
    112      1     70    238      -3788.    
    113      1     76    263      -3788.    
    114      1     66    232      -2343.    
    115      1     69    229      -2343.    
    116      1     71    228      -2343.    
    117      1     69    227      -2343.    
    118      1     72    219      -2343.    
    119      1     72    218      -2343.    
    120      1     72    218      -2343.    
    121      1     73    217      -2343.    
    122      1     77    219      -2343.    
    123      1     78    219      -2343.    
    124      1     83    213      -2343.    
    125      1     77    213      -2343.    
    126      1     81    211      -2343.    
    127      1     81    210      -2343.    
    128      1     81    210      -2343.    
    129      1     82    208      -2343.    
    130      1     80    205      -2343.    
    131      1     86    202      -2343.    
    132      1     84    200      -2343.    
    133      1     89    200      -2343.    
    134      1     89    199      -2343.    
    135      1     88    199      -2343.    
    136      1     86    199      -2343.    
    137      1     85    199      -2343.    
    138      1     82    197      -2343.    
    139      1     86    197      -2343.    
    140      1     88    198      -2343.    
    141      1     90    192      -2343.    
    142      1     89    191      -2343.    
    143      1     84    192      -2343.    
    144      1     91    189      -2343.    
    145      1     92    185      -2343.    
    146      1     87    183      -2343.    
    147      1     92    182      -2343.    
    148      1     90    182      -2343.    
    149      1     88    179      -2343.    
    150      1     89    176      -2343.    
    151      1     92    172      -2343.    
    152      1     93    164      -2343.    
    153      1     94    162      -2343.    
    154      1    103    156      -2343.    
    155      1    103    156      -2343.    
    156      1     96    154      -2343.    
    157      1     97    153      -2343.    
    158      1    122    139      -2343.    
    159      1     92     77      -2343.    
    160      1     94     77      -2343.    
    161      1     94     73      -2343.    
    162      1     97    152      -2343.    
    163      1    118    337      -666.7    
    164      1    133    319      -2678.    
    165      1    131    320      -3951.    
    166      1    133    321      -2956.    
    167      1    161    329      -2141.    
    168      1    178    330      -551.0    
    169      1    163    330      -1122.    
    170      1    131    320      -2473.    
    171      1    129    315      -3937.    
    172      1    162    329      -1959.    
    173      1    131    311      -826.1    
    174      1    221    340      -1994.    
    175      1    220    340      -1034.    
    176      1    221    340      -667.7    
    177      1    137    322      -2082.    
    178      1    137    321      -1407.    
    179      1    185    329      -2012.    
    180      1    183    329      -1473.    
    181      1    175    329      -585.3    
    182      1     79    243      -1490.    
    183      1     77    245      -2414.    
    184      1    199    329      -1617.    
    185      1    198    330      -2514.    
    186      1    140    328      -972.1    
    187      1    143    327      -863.6    
    188      1    139    327      -1331.    

    188 WELLS

 REUSING NON-PARAMETER DRAINS FROM LAST STRESS PERIOD

   1061 DRAINS

 REUSING SURF FROM LAST STRESS PERIOD

 REUSING EVTR FROM LAST STRESS PERIOD

 REUSING EXDP FROM LAST STRESS PERIOD



                           RECHARGE
 READING ON UNIT   19 WITH FORMAT: (510E15.6)          

 SOLVING FOR HEAD 
                                                   Max.-Head-Change                        Max.-Flux-Residual
  Residual-Control   Outer-Iter.   Inner-Iter.     Column Row Layer    Max.-Head-Change    Column Row Layer    Max.-Flux-Residual            L2-New               L2-Old           Solver-Max-Delh
          0                 1           3           263   79     1       0.2901161210E+01     263   79    1       0.9514515501E+03      0.8370005378E+04      0.3789573713E+02      0.2901161210E+01
          0                 2           2           263   79     1      -0.2516549153E+00     263   79    1      -0.9566700481E+02      0.8451292077E+03      0.8370005378E+04     -0.2516549153E+00
          0                 3           2           263   79     1      -0.1259427200E-01     263   79    1      -0.4787335274E+01      0.4225490261E+02      0.8451292077E+03     -0.1259427200E-01

    ------------------------------------------------
       NWT REQUIRED            3 OUTER ITERATIONS 
       AND A TOTAL OF          7 INNER ITERATIONS.
    ------------------------------------------------

 NO OUTPUT CONTROL FOR STRESS PERIOD   75   TIME STEP    1

 WELLS WITH REDUCED PUMPING FOR STRESS PERIOD    75 TIME STEP     1
   LAY   ROW   COL         APPL.Q          ACT.Q        GW-HEAD       CELL-BOT
     1    77   213  -0.234339E+04  -0.101693E+04   0.153455E+03   0.148000E+03
     1    92    77  -0.234339E+04  -0.432611E+03  -0.863851E+02  -0.930000E+02
     1    94    77  -0.234339E+04  -0.545583E+03  -0.949162E+02  -0.102000E+03
     1    94    73  -0.234339E+04  -0.644086E+03  -0.670386E+02  -0.740000E+02


 SOLVING FOR HEAD 
                                                   Max.-Head-Change                        Max.-Flux-Residual
  Residual-Control   Outer-Iter.   Inner-Iter.     Column Row Layer    Max.-Head-Change    Column Row Layer    Max.-Flux-Residual            L2-New               L2-Old           Solver-Max-Delh
          0                 1           3           263   79     1       0.1104002176E+01     213   83    1      -0.8922897573E+03      0.7328101031E+04      0.4225490261E+02      0.1104002176E+01
          0                 2           2           263   79     1      -0.9519473504E-01     213   83    1       0.8920453388E+02      0.7327486087E+03      0.7328101031E+04     -0.9519473504E-01

    ------------------------------------------------
       NWT REQUIRED            2 OUTER ITERATIONS 
       AND A TOTAL OF          5 INNER ITERATIONS.
    ------------------------------------------------

 NO OUTPUT CONTROL FOR STRESS PERIOD   75   TIME STEP    2

 WELLS WITH REDUCED PUMPING FOR STRESS PERIOD    75 TIME STEP     2
   LAY   ROW   COL         APPL.Q          ACT.Q        GW-HEAD       CELL-BOT
     1    77   213  -0.234339E+04  -0.989378E+03   0.153361E+03   0.148000E+03
     1    92    77  -0.234339E+04  -0.430995E+03  -0.863990E+02  -0.930000E+02
     1    94    77  -0.234339E+04  -0.537112E+03  -0.949797E+02  -0.102000E+03
     1    94    73  -0.234339E+04  -0.632613E+03  -0.671117E+02  -0.740000E+02


 SOLVING FOR HEAD 
                                                   Max.-Head-Change                        Max.-Flux-Residual
  Residual-Control   Outer-Iter.   Inner-Iter.     Column Row Layer    Max.-Head-Change    Column Row Layer    Max.-Flux-Residual            L2-New               L2-Old           Solver-Max-Delh
          0                 1           3           343  217     1      -0.4228593431E+00     213   83    1      -0.8792537116E+03      0.7119335214E+04      0.3663369074E+02     -0.4228593431E+00
          0                 2           2           343  217     1       0.3646152969E-01     213   83    1       0.8790142282E+02      0.7117427570E+03      0.7119335214E+04      0.3646152969E-01

    ------------------------------------------------
       NWT REQUIRED            2 OUTER ITERATIONS 
       AND A TOTAL OF          5 INNER ITERATIONS.
    ------------------------------------------------

 NO OUTPUT CONTROL FOR STRESS PERIOD   75   TIME STEP    3

 WELLS WITH REDUCED PUMPING FOR STRESS PERIOD    75 TIME STEP     3
   LAY   ROW   COL         APPL.Q          ACT.Q        GW-HEAD       CELL-BOT
     1    77   213  -0.234339E+04  -0.964727E+03   0.153276E+03   0.148000E+03
     1    92    77  -0.234339E+04  -0.430180E+03  -0.864061E+02  -0.930000E+02
     1    94    77  -0.234339E+04  -0.529091E+03  -0.950401E+02  -0.102000E+03
     1    94    73  -0.234339E+04  -0.621847E+03  -0.671806E+02  -0.740000E+02


 SOLVING FOR HEAD 
                                                   Max.-Head-Change                        Max.-Flux-Residual
  Residual-Control   Outer-Iter.   Inner-Iter.     Column Row Layer    Max.-Head-Change    Column Row Layer    Max.-Flux-Residual            L2-New               L2-Old           Solver-Max-Delh
          0                 1           3           343  217     1      -0.3758882998E+00     213   83    1      -0.8664953155E+03      0.6996986790E+04      0.3558596806E+02     -0.3758882998E+00
          0                 2           2           343  217     1       0.3231498183E-01     213   83    1       0.8662606576E+02      0.6995854040E+03      0.6996986790E+04      0.3231498183E-01

    ------------------------------------------------
       NWT REQUIRED            2 OUTER ITERATIONS 
       AND A TOTAL OF          5 INNER ITERATIONS.
    ------------------------------------------------

 NO OUTPUT CONTROL FOR STRESS PERIOD   75   TIME STEP    4

 WELLS WITH REDUCED PUMPING FOR STRESS PERIOD    75 TIME STEP     4
   LAY   ROW   COL         APPL.Q          ACT.Q        GW-HEAD       CELL-BOT
     1    77   213  -0.234339E+04  -0.942666E+03   0.153199E+03   0.148000E+03
     1    92    77  -0.234339E+04  -0.429783E+03  -0.864095E+02  -0.930000E+02
     1    94    77  -0.234339E+04  -0.521493E+03  -0.950977E+02  -0.102000E+03
     1    94    73  -0.234339E+04  -0.611738E+03  -0.672456E+02  -0.740000E+02


 SOLVING FOR HEAD 
                                                   Max.-Head-Change                        Max.-Flux-Residual
  Residual-Control   Outer-Iter.   Inner-Iter.     Column Row Layer    Max.-Head-Change    Column Row Layer    Max.-Flux-Residual            L2-New               L2-Old           Solver-Max-Delh
          0                 1           3           213   83     1      -0.3509342153E+00     213   83    1      -0.8540083864E+03      0.6906606489E+04      0.3497879645E+02     -0.3509342153E+00
          0                 2           2           213   83     1       0.3030130170E-01     213   83    1       0.8537784553E+02      0.6905747589E+03      0.6906606489E+04      0.3030130170E-01

    ------------------------------------------------
       NWT REQUIRED            2 OUTER ITERATIONS 
       AND A TOTAL OF          5 INNER ITERATIONS.
    ------------------------------------------------

 NO OUTPUT CONTROL FOR STRESS PERIOD   75   TIME STEP    5

 WELLS WITH REDUCED PUMPING FOR STRESS PERIOD    75 TIME STEP     5
   LAY   ROW   COL         APPL.Q          ACT.Q        GW-HEAD       CELL-BOT
     1    77   213  -0.234339E+04  -0.922912E+03   0.153131E+03   0.148000E+03
     1    92    77  -0.234339E+04  -0.429604E+03  -0.864110E+02  -0.930000E+02
     1    94    77  -0.234339E+04  -0.514292E+03  -0.951524E+02  -0.102000E+03
     1    94    73  -0.234339E+04  -0.602244E+03  -0.673069E+02  -0.740000E+02


 SOLVING FOR HEAD 
                                                   Max.-Head-Change                        Max.-Flux-Residual
  Residual-Control   Outer-Iter.   Inner-Iter.     Column Row Layer    Max.-Head-Change    Column Row Layer    Max.-Flux-Residual            L2-New               L2-Old           Solver-Max-Delh
          0                 1           3           213   83     1      -0.3459521415E+00     213   83    1      -0.8417865862E+03      0.6833124265E+04      0.3452807966E+02     -0.3459521415E+00
          0                 2           2           213   83     1       0.2987116545E-01     213   83    1       0.8415612885E+02      0.6832345459E+03      0.6833124265E+04      0.2987116545E-01

    ------------------------------------------------
       NWT REQUIRED            2 OUTER ITERATIONS 
       AND A TOTAL OF          5 INNER ITERATIONS.
    ------------------------------------------------

 NO OUTPUT CONTROL FOR STRESS PERIOD   75   TIME STEP    6

 WELLS WITH REDUCED PUMPING FOR STRESS PERIOD    75 TIME STEP     6
   LAY   ROW   COL         APPL.Q          ACT.Q        GW-HEAD       CELL-BOT
     1    77   213  -0.234339E+04  -0.905214E+03   0.153069E+03   0.148000E+03
     1    92    77  -0.234339E+04  -0.429540E+03  -0.864116E+02  -0.930000E+02
     1    94    77  -0.234339E+04  -0.507466E+03  -0.952045E+02  -0.102000E+03
     1    94    73  -0.234339E+04  -0.593322E+03  -0.673648E+02  -0.740000E+02


 SOLVING FOR HEAD 
                                                   Max.-Head-Change                        Max.-Flux-Residual
  Residual-Control   Outer-Iter.   Inner-Iter.     Column Row Layer    Max.-Head-Change    Column Row Layer    Max.-Flux-Residual            L2-New               L2-Old           Solver-Max-Delh
          0                 1           3           213   83     1      -0.3410749707E+00     213   83    1      -0.8298233417E+03      0.6770353835E+04      0.3416116211E+02     -0.3410749707E+00
          0                 2           2           213   83     1       0.2945008635E-01     213   83    1       0.8296025853E+02      0.6776529297E+03      0.6770353835E+04      0.2945008635E-01

    ------------------------------------------------
       NWT REQUIRED            2 OUTER ITERATIONS 
       AND A TOTAL OF          5 INNER ITERATIONS.
    ------------------------------------------------

 NO OUTPUT CONTROL FOR STRESS PERIOD   75   TIME STEP    7

 WELLS WITH REDUCED PUMPING FOR STRESS PERIOD    75 TIME STEP     7
   LAY   ROW   COL         APPL.Q          ACT.Q        GW-HEAD       CELL-BOT
     1    77   213  -0.234339E+04  -0.889349E+03   0.153014E+03   0.148000E+03
     1    92    77  -0.234339E+04  -0.429533E+03  -0.864116E+02  -0.930000E+02
     1    94    77  -0.234339E+04  -0.500992E+03  -0.952542E+02  -0.102000E+03
     1    94    73  -0.234339E+04  -0.584935E+03  -0.674195E+02  -0.740000E+02


 SOLVING FOR HEAD 
                                                   Max.-Head-Change                        Max.-Flux-Residual
  Residual-Control   Outer-Iter.   Inner-Iter.     Column Row Layer    Max.-Head-Change    Column Row Layer    Max.-Flux-Residual            L2-New               L2-Old           Solver-Max-Delh
          0                 1           3           213   83     1      -0.3363001262E+00     213   83    1      -0.8181122366E+03      0.6715079209E+04      0.3388212785E+02     -0.3363001262E+00
          0                 2           2           213   83     1       0.2903784187E-01     213   83    1       0.8178959292E+02      0.6714401114E+03      0.6715079209E+04      0.2903784187E-01

    ------------------------------------------------
       NWT REQUIRED            2 OUTER ITERATIONS 
       AND A TOTAL OF          5 INNER ITERATIONS.
    ------------------------------------------------

 NO OUTPUT CONTROL FOR STRESS PERIOD   75   TIME STEP    8

 WELLS WITH REDUCED PUMPING FOR STRESS PERIOD    75 TIME STEP     8
   LAY   ROW   COL         APPL.Q          ACT.Q        GW-HEAD       CELL-BOT
     1    77   213  -0.234339E+04  -0.875118E+03   0.152964E+03   0.148000E+03
     1    92    77  -0.234339E+04  -0.429557E+03  -0.864114E+02  -0.930000E+02
     1    94    77  -0.234339E+04  -0.494851E+03  -0.953015E+02  -0.102000E+03
     1    94    73  -0.234339E+04  -0.577047E+03  -0.674711E+02  -0.740000E+02


 SOLVING FOR HEAD 
                                                   Max.-Head-Change                        Max.-Flux-Residual
  Residual-Control   Outer-Iter.   Inner-Iter.     Column Row Layer    Max.-Head-Change    Column Row Layer    Max.-Flux-Residual            L2-New               L2-Old           Solver-Max-Delh
          0                 1           3           213   83     1      -0.3316251361E+00     213   83    1      -0.8066470845E+03      0.6665566072E+04      0.3357154363E+02     -0.3316251361E+00
          0                 2           2           213   83     1       0.2863421853E-01     213   83    1       0.8064351334E+02      0.6664885325E+03      0.6665566072E+04      0.2863421853E-01

    ------------------------------------------------
       NWT REQUIRED            2 OUTER ITERATIONS 
       AND A TOTAL OF          5 INNER ITERATIONS.
    ------------------------------------------------

 NO OUTPUT CONTROL FOR STRESS PERIOD   75   TIME STEP    9

 WELLS WITH REDUCED PUMPING FOR STRESS PERIOD    75 TIME STEP     9
   LAY   ROW   COL         APPL.Q          ACT.Q        GW-HEAD       CELL-BOT
     1    77   213  -0.234339E+04  -0.862344E+03   0.152919E+03   0.148000E+03
     1    92    77  -0.234339E+04  -0.429596E+03  -0.864111E+02  -0.930000E+02
     1    94    77  -0.234339E+04  -0.489022E+03  -0.953466E+02  -0.102000E+03
     1    94    73  -0.234339E+04  -0.569626E+03  -0.675199E+02  -0.740000E+02


 SOLVING FOR HEAD 
                                                   Max.-Head-Change                        Max.-Flux-Residual
  Residual-Control   Outer-Iter.   Inner-Iter.     Column Row Layer    Max.-Head-Change    Column Row Layer    Max.-Flux-Residual            L2-New               L2-Old           Solver-Max-Delh
          0                 1           3           213   83     1      -0.3270475876E+00     213   83    1      -0.7954218458E+03      0.6620576331E+04      0.3332399789E+02     -0.3270475876E+00
          0                 2           2           213   83     1       0.2823900793E-01     213   83    1       0.7952141579E+02      0.6620033717E+03      0.6620576331E+04      0.2823900793E-01

    ------------------------------------------------
       NWT REQUIRED            2 OUTER ITERATIONS 
       AND A TOTAL OF          5 INNER ITERATIONS.
    ------------------------------------------------

 OUTPUT CONTROL FOR STRESS PERIOD   75   TIME STEP   10
    SAVE HEAD FOR ALL LAYERS

 WELLS WITH REDUCED PUMPING FOR STRESS PERIOD    75 TIME STEP    10
   LAY   ROW   COL         APPL.Q          ACT.Q        GW-HEAD       CELL-BOT
     1    77   213  -0.234339E+04  -0.850870E+03   0.152879E+03   0.148000E+03
     1    92    77  -0.234339E+04  -0.429641E+03  -0.864107E+02  -0.930000E+02
     1    94    77  -0.234339E+04  -0.483488E+03  -0.953895E+02  -0.102000E+03
     1    94    73  -0.234339E+04  -0.562641E+03  -0.675660E+02  -0.740000E+02


 HEAD WILL BE SAVED ON UNIT   51 AT END OF TIME STEP   10, STRESS PERIOD   75
1
  VOLUMETRIC BUDGET FOR ENTIRE MODEL AT END OF TIME STEP   10, STRESS PERIOD  75
  ------------------------------------------------------------------------------

     CUMULATIVE VOLUMES      L**3       RATES FOR THIS TIME STEP      L**3/T
     ------------------                 ------------------------

           IN:                                      IN:
           ---                                      ---
             STORAGE =   725271680.0000               STORAGE =      370443.5625
       CONSTANT HEAD =   116403280.0000         CONSTANT HEAD =       52159.1602
               WELLS =           0.0000                 WELLS =           0.0000
              DRAINS =           0.0000                DRAINS =           0.0000
                  ET =           0.0000                    ET =           0.0000
            RECHARGE =   413975168.0000              RECHARGE =      137221.6094

            TOTAL IN =  1255650048.0000              TOTAL IN =      559824.3125

          OUT:                                     OUT:
          ----                                     ----
             STORAGE =   219704208.0000               STORAGE =        8617.6279
       CONSTANT HEAD =           0.0000         CONSTANT HEAD =           0.0000
               WELLS =   683399872.0000                 WELLS =      441105.5938
              DRAINS =   249261936.0000                DRAINS =       78615.4141
                  ET =   101189872.0000                    ET =       29683.4316
            RECHARGE =      525047.1875              RECHARGE =           0.0000

           TOTAL OUT =  1254080896.0000             TOTAL OUT =      558022.0625

            IN - OUT =     1569152.0000              IN - OUT =        1802.2500

 PERCENT DISCREPANCY =           0.13     PERCENT DISCREPANCY =           0.32






         TIME SUMMARY AT END OF TIME STEP   10 IN STRESS PERIOD   75
                    SECONDS     MINUTES      HOURS       DAYS        YEARS
                    -----------------------------------------------------------
   TIME STEP LENGTH 2.62656E+05  4377.6      72.960      3.0400     8.32307E-03
 STRESS PERIOD TIME 2.62656E+06  43776.      729.60      30.400     8.32307E-02
         TOTAL TIME 1.96993E+08 3.28322E+06  54720.      2280.0      6.2423    
1
1
                            STRESS PERIOD NO.   76, LENGTH =   30.40000    
                            -----------------------------------------------

                              NUMBER OF TIME STEPS =    10

                               MULTIPLIER FOR DELT =     1.000

                            INITIAL TIME STEP SIZE =   3.040000    

 WELL NO.  LAYER   ROW   COL   STRESS RATE         
 --------------------------------------------------
      1      1     69    225      -6480.    
      2      1     71    224       0.000    
      3      1     74    220       0.000    
      4      1     73    220       0.000    
      5      1     71    223       0.000    
      6      1     71    223       0.000    
      7      1     72    223       0.000    
      8      1     92    173       0.000    
      9      1     94    174       0.000    
     10      1     93    175       0.000    
     11      1    203    328       0.000    
     12      1    438    460      -0.000    
     13      1    436    461      -0.000    
     14      1    410    454      -0.000    
     15      1    433    460      -0.000    
     16      1    431    462      -0.000    
     17      1    417    459      -0.000    
     18      1    418    458      -0.000    
     19      1    414    455      -0.000    
     20      1    443    464      -0.000    
     21      1    379    425      -0.000    
     22      1    362    405      -0.000    
     23      1    361    405      -0.000    
     24      1    362    406      -0.000    
     25      1    363    408      -0.000    
     26      1    364    410      -0.000    
     27      1    369    418      -0.000    
     28      1    367    417      -0.000    
     29      1    365    415      -0.000    
     30      1    402    447      -0.000    
     31      1    400    446      -0.000    
     32      1    392    444      -0.000    
     33      1    391    441      -0.000    
     34      1    403    448      -0.000    
     35      1    405    447      -0.000    
     36      1    362    410      -0.000    
     37      1    362    411      -0.000    
     38      1    363    412      -0.000    
     39      1    375    421      -0.000    
     40      1    383    430      -0.000    
     41      1    397    445      -0.000    
     42      1    360    403      -0.000    
     43      1    350    401      -0.000    
     44      1    346    393      -51.80    
     45      1    333    387      -51.80    
     46      1    328    384      -51.80    
     47      1    326    383      -51.80    
     48      1    323    378      -51.80    
     49      1    321    378      -51.80    
     50      1    322    376      -51.80    
     51      1    316    374      -51.80    
     52      1    311    371      -51.80    
     53      1    307    369      -51.80    
     54      1    305    368      -51.80    
     55      1    303    368      -51.80    
     56      1    300    369      -51.80    
     57      1    293    364      -51.80    
     58      1    292    362      -51.80    
     59      1    278    350      -51.80    
     60      1    274    351      -51.80    
     61      1    273    350      -51.80    
     62      1    271    350      -51.80    
     63      1    267    348      -51.80    
     64      1    263    348      -51.80    
     65      1    263    348      -51.80    
     66      1    248    347      -51.80    
     67      1    243    342      -51.80    
     68      1    242    339      -51.80    
     69      1    238    341      -51.80    
     70      1    233    340      -51.80    
     71      1    232    340      -51.80    
     72      1    229    341      -51.80    
     73      1    227    341      -51.80    
     74      1    219    342      -51.80    
     75      1    219    336      -51.80    
     76      1    199    329      -51.80    
     77      1    191    332      -145.5    
     78      1    190    332      -145.5    
     79      1    130    310      -145.5    
     80      1    123    305      -145.5    
     81      1    104    289      -145.5    
     82      1     96    287      -510.6    
     83      1     95    284      -510.6    
     84      1     95    280      -510.6    
     85      1     93    276      -510.6    
     86      1     94    275      -510.6    
     87      1     90    277      -510.6    
     88      1     90    273      -510.6    
     89      1     86    271      -510.6    
     90      1     85    270      -510.6    
     91      1     84    265      -510.6    
     92      1     85    265      -510.6    
     93      1     84    264      -510.6    
     94      1     79    263      -510.6    
     95      1     79    263      -510.6    
     96      1     76    262      -510.6    
     97      1     73    257      -510.6    
     98      1     74    255      -510.6    
     99      1     71    255      -510.6    
    100      1     66    253      -510.6    
    101      1     68    252      -510.6    
    102      1     69    250      -510.6    
    103      1     65    248      -510.6    
    104      1     68    248      -510.6    
    105      1     69    247      -510.6    
    106      1     73    247      -510.6    
    107      1     64    246      -510.6    
    108      1     69    245      -510.6    
    109      1     72    245      -510.6    
    110      1     69    241      -510.6    
    111      1     73    238      -510.6    
    112      1     70    238      -510.6    
    113      1     76    263      -510.6    
    114      1     66    232      -620.9    
    115      1     69    229      -620.9    
    116      1     71    228      -620.9    
    117      1     69    227      -620.9    
    118      1     72    219      -620.9    
    119      1     72    218      -620.9    
    120      1     72    218      -620.9    
    121      1     73    217      -620.9    
    122      1     77    219      -620.9    
    123      1     78    219      -620.9    
    124      1     83    213      -620.9    
    125      1     77    213      -620.9    
    126      1     81    211      -620.9    
    127      1     81    210      -620.9    
    128      1     81    210      -620.9    
    129      1     82    208      -620.9    
    130      1     80    205      -620.9    
    131      1     86    202      -620.9    
    132      1     84    200      -620.9    
    133      1     89    200      -620.9    
    134      1     89    199      -620.9    
    135      1     88    199      -620.9    
    136      1     86    199      -620.9    
    137      1     85    199      -620.9    
    138      1     82    197      -620.9    
    139      1     86    197      -620.9    
    140      1     88    198      -620.9    
    141      1     90    192      -620.9    
    142      1     89    191      -620.9    
    143      1     84    192      -620.9    
    144      1     91    189      -620.9    
    145      1     92    185      -620.9    
    146      1     87    183      -620.9    
    147      1     92    182      -620.9    
    148      1     90    182      -620.9    
    149      1     88    179      -620.9    
    150      1     89    176      -620.9    
    151      1     92    172      -620.9    
    152      1     93    164      -620.9    
    153      1     94    162      -620.9    
    154      1    103    156      -620.9    
    155      1    103    156      -620.9    
    156      1     96    154      -620.9    
    157      1     97    153      -620.9    
    158      1    122    139      -620.9    
    159      1     92     77      -620.9    
    160      1     94     77      -620.9    
    161      1     94     73      -620.9    
    162      1     97    152      -620.9    
    163      1    118    337      -666.7    
    164      1    133    319      -2678.    
    165      1    131    320      -3951.    
    166      1    133    321      -2956.    
    167      1    161    329      -2141.    
    168      1    178    330      -551.0    
    169      1    163    330      -1122.    
    170      1    131    320      -2473.    
    171      1    129    315      -3937.    
    172      1    162    329      -1959.    
    173      1    131    311      -826.1    
    174      1    221    340      -1994.    
    175      1    220    340      -1034.    
    176      1    221    340      -667.7    
    177      1    137    322      -2082.    
    178      1    137    321      -1407.    
    179      1    185    329      -2012.    
    180      1    183    329      -1473.    
    181      1    175    329      -585.3    
    182      1     79    243      -1490.    
    183      1     77    245      -2414.    
    184      1    199    329      -1617.    
    185      1    198    330      -2514.    
    186      1    140    328      -972.1    
    187      1    143    327      -863.6    
    188      1    139    327      -1331.    

    188 WELLS

 REUSING NON-PARAMETER DRAINS FROM LAST STRESS PERIOD

   1061 DRAINS

 REUSING SURF FROM LAST STRESS PERIOD

 REUSING EVTR FROM LAST STRESS PERIOD

 REUSING EXDP FROM LAST STRESS PERIOD



                           RECHARGE
 READING ON UNIT   19 WITH FORMAT: (510E15.6)          

 SOLVING FOR HEAD 
                                                   Max.-Head-Change                        Max.-Flux-Residual
  Residual-Control   Outer-Iter.   Inner-Iter.     Column Row Layer    Max.-Head-Change    Column Row Layer    Max.-Flux-Residual            L2-New               L2-Old           Solver-Max-Delh
          0                 1           3           263   79     1       0.2120626832E+02     348  263    1       0.7070561072E+04      0.3199188120E+05      0.3309982385E+02      0.2120626832E+02
          0                 2           2           263   79     1      -0.2062008254E+01     348  263    1      -0.8111122929E+03      0.3305521427E+04      0.3199188120E+05     -0.2062008254E+01
          0                 3           2           263   79     1      -0.1057985171E+00     348  263    1      -0.4097046022E+02      0.1677997060E+03      0.3305521427E+04     -0.1057985171E+00
          0                 4           2           232   92     1       0.6003187250E-02     348  263    1      -0.2049169760E+01      0.8443960056E+01      0.1677997060E+03      0.6003187250E-02

    ------------------------------------------------
       NWT REQUIRED            4 OUTER ITERATIONS 
       AND A TOTAL OF          9 INNER ITERATIONS.
    ------------------------------------------------

 NO OUTPUT CONTROL FOR STRESS PERIOD   76   TIME STEP    1

 WELLS WITH REDUCED PUMPING FOR STRESS PERIOD    76 TIME STEP     1
   LAY   ROW   COL         APPL.Q          ACT.Q        GW-HEAD       CELL-BOT
     1    77   213  -0.620891E+03  -0.239202E+03   0.153061E+03   0.148000E+03
     1    92    77  -0.620891E+03  -0.170875E+03  -0.846797E+02  -0.930000E+02
     1    94    77  -0.620891E+03  -0.130908E+03  -0.953075E+02  -0.102000E+03
     1    94    73  -0.620891E+03  -0.153121E+03  -0.674654E+02  -0.740000E+02


 SOLVING FOR HEAD 
                                                   Max.-Head-Change                        Max.-Flux-Residual
  Residual-Control   Outer-Iter.   Inner-Iter.     Column Row Layer    Max.-Head-Change    Column Row Layer    Max.-Flux-Residual            L2-New               L2-Old           Solver-Max-Delh
          0                 1           3           263   79     1       0.9113097882E+01     393  346    1       0.2939164927E+04      0.1417080137E+05      0.8443960056E+01      0.9113097882E+01
          0                 2           2           263   79     1      -0.8496549018E+00     263   79    1      -0.3001255610E+03      0.1428863246E+04      0.1417080137E+05     -0.8496549018E+00
          0                 3           2           263   79     1      -0.4318638204E-01     263   79    1      -0.1525417310E+02      0.7156152032E+02      0.1428863246E+04     -0.4318638204E-01

    ------------------------------------------------
       NWT REQUIRED            3 OUTER ITERATIONS 
       AND A TOTAL OF          7 INNER ITERATIONS.
    ------------------------------------------------

 NO OUTPUT CONTROL FOR STRESS PERIOD   76   TIME STEP    2

 WELLS WITH REDUCED PUMPING FOR STRESS PERIOD    76 TIME STEP     2
   LAY   ROW   COL         APPL.Q          ACT.Q        GW-HEAD       CELL-BOT
     1    77   213  -0.620891E+03  -0.252625E+03   0.153237E+03   0.148000E+03
     1    92    77  -0.620891E+03  -0.219063E+03  -0.833449E+02  -0.930000E+02
     1    94    77  -0.620891E+03  -0.133695E+03  -0.952265E+02  -0.102000E+03
     1    94    73  -0.620891E+03  -0.157134E+03  -0.673665E+02  -0.740000E+02


 SOLVING FOR HEAD 
                                                   Max.-Head-Change                        Max.-Flux-Residual
  Residual-Control   Outer-Iter.   Inner-Iter.     Column Row Layer    Max.-Head-Change    Column Row Layer    Max.-Flux-Residual            L2-New               L2-Old           Solver-Max-Delh
          0                 1           3           263   79     1       0.4184434427E+01     393  346    1       0.2543108119E+04      0.1054199674E+05      0.7156152032E+02      0.4184434427E+01
          0                 2           2           263   79     1      -0.3846851959E+00     393  346    1      -0.2544757221E+03      0.1063249327E+04      0.1054199674E+05     -0.3846851959E+00
          0                 3           2           263   79     1      -0.1942554975E-01     393  346    1      -0.1272501054E+02      0.5315409947E+02      0.1063249327E+04     -0.1942554975E-01

    ------------------------------------------------
       NWT REQUIRED            3 OUTER ITERATIONS 
       AND A TOTAL OF          7 INNER ITERATIONS.
    ------------------------------------------------

 NO OUTPUT CONTROL FOR STRESS PERIOD   76   TIME STEP    3

 WELLS WITH REDUCED PUMPING FOR STRESS PERIOD    76 TIME STEP     3
   LAY   ROW   COL         APPL.Q          ACT.Q        GW-HEAD       CELL-BOT
     1    77   213  -0.620891E+03  -0.265685E+03   0.153407E+03   0.148000E+03
     1    92    77  -0.620891E+03  -0.257480E+03  -0.823250E+02  -0.930000E+02
     1    94    77  -0.620891E+03  -0.136461E+03  -0.951467E+02  -0.102000E+03
     1    94    73  -0.620891E+03  -0.161110E+03  -0.672693E+02  -0.740000E+02


 SOLVING FOR HEAD 
                                                   Max.-Head-Change                        Max.-Flux-Residual
  Residual-Control   Outer-Iter.   Inner-Iter.     Column Row Layer    Max.-Head-Change    Column Row Layer    Max.-Flux-Residual            L2-New               L2-Old           Solver-Max-Delh
          0                 1           3           263   79     1       0.2078701878E+01     374  316    1       0.2259132226E+04      0.8748889093E+04      0.5315409947E+02      0.2078701878E+01
          0                 2           2           263   79     1      -0.1837726676E+00     374  316    1      -0.2260202333E+03      0.8769541735E+03      0.8748889093E+04     -0.1837726676E+00
          0                 3           2           263   79     1      -0.9233615825E-02     374  316    1      -0.1130180531E+02      0.4385981746E+02      0.8769541735E+03     -0.9233615825E-02

    ------------------------------------------------
       NWT REQUIRED            3 OUTER ITERATIONS 
       AND A TOTAL OF          7 INNER ITERATIONS.
    ------------------------------------------------

 NO OUTPUT CONTROL FOR STRESS PERIOD   76   TIME STEP    4

 WELLS WITH REDUCED PUMPING FOR STRESS PERIOD    76 TIME STEP     4
   LAY   ROW   COL         APPL.Q          ACT.Q        GW-HEAD       CELL-BOT
     1    77   213  -0.620891E+03  -0.278365E+03   0.153571E+03   0.148000E+03
     1    92    77  -0.620891E+03  -0.287259E+03  -0.815489E+02  -0.930000E+02
     1    94    77  -0.620891E+03  -0.139206E+03  -0.950681E+02  -0.102000E+03
     1    94    73  -0.620891E+03  -0.165046E+03  -0.671737E+02  -0.740000E+02


 SOLVING FOR HEAD 
                                                   Max.-Head-Change                        Max.-Flux-Residual
  Residual-Control   Outer-Iter.   Inner-Iter.     Column Row Layer    Max.-Head-Change    Column Row Layer    Max.-Flux-Residual            L2-New               L2-Old           Solver-Max-Delh
          0                 1           3           263   78     1       0.1224970960E+01     374  316    1       0.2026354864E+04      0.7623191041E+04      0.4385981746E+02      0.1224970960E+01
          0                 2           2           263   78     1      -0.1072374209E+00     374  316    1      -0.2027379572E+03      0.7710883076E+03      0.7623191041E+04     -0.1072374209E+00
          0                 3           2           232   92     1       0.5957369562E-02     374  316    1      -0.1013765952E+02      0.3856101679E+02      0.7710883076E+03      0.5957369562E-02

    ------------------------------------------------
       NWT REQUIRED            3 OUTER ITERATIONS 
       AND A TOTAL OF          7 INNER ITERATIONS.
    ------------------------------------------------

 NO OUTPUT CONTROL FOR STRESS PERIOD   76   TIME STEP    5

 WELLS WITH REDUCED PUMPING FOR STRESS PERIOD    76 TIME STEP     5
   LAY   ROW   COL         APPL.Q          ACT.Q        GW-HEAD       CELL-BOT
     1    77   213  -0.620891E+03  -0.290653E+03   0.153729E+03   0.148000E+03
     1    92    77  -0.620891E+03  -0.310029E+03  -0.809591E+02  -0.930000E+02
     1    94    77  -0.620891E+03  -0.141927E+03  -0.949906E+02  -0.102000E+03
     1    94    73  -0.620891E+03  -0.168942E+03  -0.670797E+02  -0.740000E+02


 SOLVING FOR HEAD 
                                                   Max.-Head-Change                        Max.-Flux-Residual
  Residual-Control   Outer-Iter.   Inner-Iter.     Column Row Layer    Max.-Head-Change    Column Row Layer    Max.-Flux-Residual            L2-New               L2-Old           Solver-Max-Delh
          0                 1           3           264   78     1       0.1012238128E+01     378  321    1       0.1844586413E+04      0.6828069190E+04      0.3856101679E+02      0.1012238128E+01
          0                 2           2           264   78     1      -0.8887256673E-01     378  321    1      -0.1845829215E+03      0.6836202249E+03      0.6828069190E+04     -0.8887256673E-01

    ------------------------------------------------
       NWT REQUIRED            2 OUTER ITERATIONS 
       AND A TOTAL OF          5 INNER ITERATIONS.
    ------------------------------------------------

 NO OUTPUT CONTROL FOR STRESS PERIOD   76   TIME STEP    6

 WELLS WITH REDUCED PUMPING FOR STRESS PERIOD    76 TIME STEP     6
   LAY   ROW   COL         APPL.Q          ACT.Q        GW-HEAD       CELL-BOT
     1    77   213  -0.620891E+03  -0.302600E+03   0.153883E+03   0.148000E+03
     1    92    77  -0.620891E+03  -0.327411E+03  -0.805090E+02  -0.930000E+02
     1    94    77  -0.620891E+03  -0.144639E+03  -0.949138E+02  -0.102000E+03
     1    94    73  -0.620891E+03  -0.172815E+03  -0.669869E+02  -0.740000E+02


 SOLVING FOR HEAD 
                                                   Max.-Head-Change                        Max.-Flux-Residual
  Residual-Control   Outer-Iter.   Inner-Iter.     Column Row Layer    Max.-Head-Change    Column Row Layer    Max.-Flux-Residual            L2-New               L2-Old           Solver-Max-Delh
          0                 1           3           264   78     1       0.8438691530E+00     378  321    1       0.1686462697E+04      0.6226753348E+04      0.3418338838E+02      0.8438691530E+00
          0                 2           2           264   78     1      -0.7398195226E-01     378  321    1      -0.1687672508E+03      0.6252924779E+03      0.6226753348E+04     -0.7398195226E-01

    ------------------------------------------------
       NWT REQUIRED            2 OUTER ITERATIONS 
       AND A TOTAL OF          5 INNER ITERATIONS.
    ------------------------------------------------

 NO OUTPUT CONTROL FOR STRESS PERIOD   76   TIME STEP    7

 WELLS WITH REDUCED PUMPING FOR STRESS PERIOD    76 TIME STEP     7
   LAY   ROW   COL         APPL.Q          ACT.Q        GW-HEAD       CELL-BOT
     1    77   213  -0.620891E+03  -0.314142E+03   0.154031E+03   0.148000E+03
     1    92    77  -0.620891E+03  -0.340562E+03  -0.801678E+02  -0.930000E+02
     1    94    77  -0.620891E+03  -0.147327E+03  -0.948382E+02  -0.102000E+03
     1    94    73  -0.620891E+03  -0.176644E+03  -0.668956E+02  -0.740000E+02


 SOLVING FOR HEAD 
                                                   Max.-Head-Change                        Max.-Flux-Residual
  Residual-Control   Outer-Iter.   Inner-Iter.     Column Row Layer    Max.-Head-Change    Column Row Layer    Max.-Flux-Residual            L2-New               L2-Old           Solver-Max-Delh
          0                 1           3           343  217     1       0.7301884817E+00     378  321    1       0.1545831549E+04      0.5756595613E+04      0.3130812496E+02      0.7301884817E+00
          0                 2           2           343  217     1      -0.6353103474E-01     378  321    1      -0.1546981337E+03      0.5758171068E+03      0.5756595613E+04     -0.6353103474E-01

    ------------------------------------------------
       NWT REQUIRED            2 OUTER ITERATIONS 
       AND A TOTAL OF          5 INNER ITERATIONS.
    ------------------------------------------------

 NO OUTPUT CONTROL FOR STRESS PERIOD   76   TIME STEP    8

 WELLS WITH REDUCED PUMPING FOR STRESS PERIOD    76 TIME STEP     8
   LAY   ROW   COL         APPL.Q          ACT.Q        GW-HEAD       CELL-BOT
     1    77   213  -0.620891E+03  -0.325278E+03   0.154174E+03   0.148000E+03
     1    92    77  -0.620891E+03  -0.350498E+03  -0.799091E+02  -0.930000E+02
     1    94    77  -0.620891E+03  -0.149990E+03  -0.947637E+02  -0.102000E+03
     1    94    73  -0.620891E+03  -0.180429E+03  -0.668060E+02  -0.740000E+02


 SOLVING FOR HEAD 
                                                   Max.-Head-Change                        Max.-Flux-Residual
  Residual-Control   Outer-Iter.   Inner-Iter.     Column Row Layer    Max.-Head-Change    Column Row Layer    Max.-Flux-Residual            L2-New               L2-Old           Solver-Max-Delh
          0                 1           3           343  217     1       0.6831522261E+00     378  321    1       0.1420366767E+04      0.5379302014E+04      0.2879268770E+02      0.6831522261E+00
          0                 2           2           343  217     1      -0.5941870256E-01     378  321    1      -0.1421442488E+03      0.5383498557E+03      0.5379302014E+04     -0.5941870256E-01

    ------------------------------------------------
       NWT REQUIRED            2 OUTER ITERATIONS 
       AND A TOTAL OF          5 INNER ITERATIONS.
    ------------------------------------------------

 NO OUTPUT CONTROL FOR STRESS PERIOD   76   TIME STEP    9

 WELLS WITH REDUCED PUMPING FOR STRESS PERIOD    76 TIME STEP     9
   LAY   ROW   COL         APPL.Q          ACT.Q        GW-HEAD       CELL-BOT
     1    77   213  -0.620891E+03  -0.336010E+03   0.154312E+03   0.148000E+03
     1    92    77  -0.620891E+03  -0.358000E+03  -0.797132E+02  -0.930000E+02
     1    94    77  -0.620891E+03  -0.152628E+03  -0.946903E+02  -0.102000E+03
     1    94    73  -0.620891E+03  -0.184168E+03  -0.667179E+02  -0.740000E+02


 SOLVING FOR HEAD 
                                                   Max.-Head-Change                        Max.-Flux-Residual
  Residual-Control   Outer-Iter.   Inner-Iter.     Column Row Layer    Max.-Head-Change    Column Row Layer    Max.-Flux-Residual            L2-New               L2-Old           Solver-Max-Delh
          0                 1           3           343  217     1       0.6338441257E+00     378  321    1       0.1308117202E+04      0.5069381264E+04      0.2691561375E+02      0.6338441257E+00
          0                 2           2           343  217     1      -0.5510523467E-01     378  321    1      -0.1309112964E+03      0.5070590057E+03      0.5069381264E+04     -0.5510523467E-01

    ------------------------------------------------
       NWT REQUIRED            2 OUTER ITERATIONS 
       AND A TOTAL OF          5 INNER ITERATIONS.
    ------------------------------------------------

 OUTPUT CONTROL FOR STRESS PERIOD   76   TIME STEP   10
    SAVE HEAD FOR ALL LAYERS

 WELLS WITH REDUCED PUMPING FOR STRESS PERIOD    76 TIME STEP    10
   LAY   ROW   COL         APPL.Q          ACT.Q        GW-HEAD       CELL-BOT
     1    77   213  -0.620891E+03  -0.346344E+03   0.154446E+03   0.148000E+03
     1    92    77  -0.620891E+03  -0.363659E+03  -0.795650E+02  -0.930000E+02
     1    94    77  -0.620891E+03  -0.155240E+03  -0.946179E+02  -0.102000E+03
     1    94    73  -0.620891E+03  -0.187861E+03  -0.666314E+02  -0.740000E+02


 HEAD WILL BE SAVED ON UNIT   51 AT END OF TIME STEP   10, STRESS PERIOD   76
1
  VOLUMETRIC BUDGET FOR ENTIRE MODEL AT END OF TIME STEP   10, STRESS PERIOD  76
  ------------------------------------------------------------------------------

     CUMULATIVE VOLUMES      L**3       RATES FOR THIS TIME STEP      L**3/T
     ------------------                 ------------------------

           IN:                                      IN:
           ---                                      ---
             STORAGE =   731317824.0000               STORAGE =      167500.8281
       CONSTANT HEAD =   117988960.0000         CONSTANT HEAD =       52161.4492
               WELLS =           0.0000                 WELLS =           0.0000
              DRAINS =           0.0000                DRAINS =           0.0000
                  ET =           0.0000                    ET =           0.0000
            RECHARGE =   416219008.0000              RECHARGE =       73807.1484

            TOTAL IN =  1265525760.0000              TOTAL IN =      293469.4375

          OUT:                                     OUT:
          ----                                     ----
             STORAGE =   223134704.0000               STORAGE =       77604.4688
       CONSTANT HEAD =           0.0000         CONSTANT HEAD =           0.0000
               WELLS =   686404672.0000                 WELLS =       98989.3281
              DRAINS =   251776400.0000                DRAINS =       85552.5234
                  ET =   102108800.0000                    ET =       30880.0488
            RECHARGE =      525047.1875              RECHARGE =           0.0000

           TOTAL OUT =  1263949696.0000             TOTAL OUT =      293026.3750

            IN - OUT =     1576064.0000              IN - OUT =         443.0625

 PERCENT DISCREPANCY =           0.12     PERCENT DISCREPANCY =           0.15






         TIME SUMMARY AT END OF TIME STEP   10 IN STRESS PERIOD   76
                    SECONDS     MINUTES      HOURS       DAYS        YEARS
                    -----------------------------------------------------------
   TIME STEP LENGTH 2.62656E+05  4377.6      72.960      3.0400     8.32307E-03
 STRESS PERIOD TIME 2.62656E+06  43776.      729.60      30.400     8.32307E-02
         TOTAL TIME 1.99620E+08 3.32700E+06  55450.      2310.4      6.3256    
1
1
                            STRESS PERIOD NO.   77, LENGTH =   30.40000    
                            -----------------------------------------------

                              NUMBER OF TIME STEPS =    10

                               MULTIPLIER FOR DELT =     1.000

                            INITIAL TIME STEP SIZE =   3.040000    

 WELL NO.  LAYER   ROW   COL   STRESS RATE         
 --------------------------------------------------
      1      1     69    225      -6566.    
      2      1     71    224       0.000    
      3      1     74    220       0.000    
      4      1     73    220       0.000    
      5      1     71    223       0.000    
      6      1     71    223       0.000    
      7      1     72    223       0.000    
      8      1     92    173       0.000    
      9      1     94    174       0.000    
     10      1     93    175       0.000    
     11      1    203    328       0.000    
     12      1    438    460      -603.8    
     13      1    436    461      -603.8    
     14      1    410    454      -603.8    
     15      1    433    460      -603.8    
     16      1    431    462      -603.8    
     17      1    417    459      -603.8    
     18      1    418    458      -603.8    
     19      1    414    455      -603.8    
     20      1    443    464      -603.8    
     21      1    379    425      -603.8    
     22      1    362    405      -603.8    
     23      1    361    405      -603.8    
     24      1    362    406      -603.8    
     25      1    363    408      -603.8    
     26      1    364    410      -603.8    
     27      1    369    418      -603.8    
     28      1    367    417      -603.8    
     29      1    365    415      -603.8    
     30      1    402    447      -603.8    
     31      1    400    446      -603.8    
     32      1    392    444      -603.8    
     33      1    391    441      -603.8    
     34      1    403    448      -603.8    
     35      1    405    447      -603.8    
     36      1    362    410      -603.8    
     37      1    362    411      -603.8    
     38      1    363    412      -603.8    
     39      1    375    421      -603.8    
     40      1    383    430      -603.8    
     41      1    397    445      -603.8    
     42      1    360    403      -603.8    
     43      1    350    401      -603.8    
     44      1    346    393      -714.3    
     45      1    333    387      -714.3    
     46      1    328    384      -714.3    
     47      1    326    383      -714.3    
     48      1    323    378      -714.3    
     49      1    321    378      -714.3    
     50      1    322    376      -714.3    
     51      1    316    374      -714.3    
     52      1    311    371      -714.3    
     53      1    307    369      -714.3    
     54      1    305    368      -714.3    
     55      1    303    368      -714.3    
     56      1    300    369      -714.3    
     57      1    293    364      -714.3    
     58      1    292    362      -714.3    
     59      1    278    350      -714.3    
     60      1    274    351      -714.3    
     61      1    273    350      -714.3    
     62      1    271    350      -714.3    
     63      1    267    348      -714.3    
     64      1    263    348      -714.3    
     65      1    263    348      -714.3    
     66      1    248    347      -714.3    
     67      1    243    342      -714.3    
     68      1    242    339      -714.3    
     69      1    238    341      -714.3    
     70      1    233    340      -714.3    
     71      1    232    340      -714.3    
     72      1    229    341      -714.3    
     73      1    227    341      -714.3    
     74      1    219    342      -714.3    
     75      1    219    336      -714.3    
     76      1    199    329      -714.3    
     77      1    191    332      -1049.    
     78      1    190    332      -1049.    
     79      1    130    310      -1049.    
     80      1    123    305      -1049.    
     81      1    104    289      -1049.    
     82      1     96    287      -1045.    
     83      1     95    284      -1045.    
     84      1     95    280      -1045.    
     85      1     93    276      -1045.    
     86      1     94    275      -1045.    
     87      1     90    277      -1045.    
     88      1     90    273      -1045.    
     89      1     86    271      -1045.    
     90      1     85    270      -1045.    
     91      1     84    265      -1045.    
     92      1     85    265      -1045.    
     93      1     84    264      -1045.    
     94      1     79    263      -1045.    
     95      1     79    263      -1045.    
     96      1     76    262      -1045.    
     97      1     73    257      -1045.    
     98      1     74    255      -1045.    
     99      1     71    255      -1045.    
    100      1     66    253      -1045.    
    101      1     68    252      -1045.    
    102      1     69    250      -1045.    
    103      1     65    248      -1045.    
    104      1     68    248      -1045.    
    105      1     69    247      -1045.    
    106      1     73    247      -1045.    
    107      1     64    246      -1045.    
    108      1     69    245      -1045.    
    109      1     72    245      -1045.    
    110      1     69    241      -1045.    
    111      1     73    238      -1045.    
    112      1     70    238      -1045.    
    113      1     76    263      -1045.    
    114      1     66    232      -728.1    
    115      1     69    229      -728.1    
    116      1     71    228      -728.1    
    117      1     69    227      -728.1    
    118      1     72    219      -728.1    
    119      1     72    218      -728.1    
    120      1     72    218      -728.1    
    121      1     73    217      -728.1    
    122      1     77    219      -728.1    
    123      1     78    219      -728.1    
    124      1     83    213      -728.1    
    125      1     77    213      -728.1    
    126      1     81    211      -728.1    
    127      1     81    210      -728.1    
    128      1     81    210      -728.1    
    129      1     82    208      -728.1    
    130      1     80    205      -728.1    
    131      1     86    202      -728.1    
    132      1     84    200      -728.1    
    133      1     89    200      -728.1    
    134      1     89    199      -728.1    
    135      1     88    199      -728.1    
    136      1     86    199      -728.1    
    137      1     85    199      -728.1    
    138      1     82    197      -728.1    
    139      1     86    197      -728.1    
    140      1     88    198      -728.1    
    141      1     90    192      -728.1    
    142      1     89    191      -728.1    
    143      1     84    192      -728.1    
    144      1     91    189      -728.1    
    145      1     92    185      -728.1    
    146      1     87    183      -728.1    
    147      1     92    182      -728.1    
    148      1     90    182      -728.1    
    149      1     88    179      -728.1    
    150      1     89    176      -728.1    
    151      1     92    172      -728.1    
    152      1     93    164      -728.1    
    153      1     94    162      -728.1    
    154      1    103    156      -728.1    
    155      1    103    156      -728.1    
    156      1     96    154      -728.1    
    157      1     97    153      -728.1    
    158      1    122    139      -728.1    
    159      1     92     77      -728.1    
    160      1     94     77      -728.1    
    161      1     94     73      -728.1    
    162      1     97    152      -728.1    
    163      1    118    337      -666.7    
    164      1    133    319      -2678.    
    165      1    131    320      -3951.    
    166      1    133    321      -2956.    
    167      1    161    329      -2141.    
    168      1    178    330      -551.0    
    169      1    163    330      -1122.    
    170      1    131    320      -2473.    
    171      1    129    315      -3937.    
    172      1    162    329      -1959.    
    173      1    131    311      -826.1    
    174      1    221    340      -1994.    
    175      1    220    340      -1034.    
    176      1    221    340      -667.7    
    177      1    137    322      -2082.    
    178      1    137    321      -1407.    
    179      1    185    329      -2012.    
    180      1    183    329      -1473.    
    181      1    175    329      -585.3    
    182      1     79    243      -1490.    
    183      1     77    245      -2414.    
    184      1    199    329      -1617.    
    185      1    198    330      -2514.    
    186      1    140    328      -972.1    
    187      1    143    327      -863.6    
    188      1    139    327      -1331.    

    188 WELLS

 REUSING NON-PARAMETER DRAINS FROM LAST STRESS PERIOD

   1061 DRAINS

 REUSING SURF FROM LAST STRESS PERIOD

 REUSING EVTR FROM LAST STRESS PERIOD

 REUSING EXDP FROM LAST STRESS PERIOD



                           RECHARGE
 READING ON UNIT   19 WITH FORMAT: (510E15.6)          

 SOLVING FOR HEAD 
                                                   Max.-Head-Change                        Max.-Flux-Residual
  Residual-Control   Outer-Iter.   Inner-Iter.     Column Row Layer    Max.-Head-Change    Column Row Layer    Max.-Flux-Residual            L2-New               L2-Old           Solver-Max-Delh
          0                 1           3           263   79     1      -0.3097441563E+01     348  263    1      -0.1267840076E+04      0.6626614229E+04      0.2537270820E+02     -0.3097441563E+01
          0                 2           2           263   79     1       0.2626124717E+00     348  263    1       0.1258642016E+03      0.6665676300E+03      0.6626614229E+04      0.2626124717E+00
          0                 3           2           263   79     1       0.1310659961E-01     348  263    1       0.6286431348E+01      0.3334033588E+02      0.6665676300E+03      0.1310659961E-01

    ------------------------------------------------
       NWT REQUIRED            3 OUTER ITERATIONS 
       AND A TOTAL OF          7 INNER ITERATIONS.
    ------------------------------------------------

 NO OUTPUT CONTROL FOR STRESS PERIOD   77   TIME STEP    1

 WELLS WITH REDUCED PUMPING FOR STRESS PERIOD    77 TIME STEP     1
   LAY   ROW   COL         APPL.Q          ACT.Q        GW-HEAD       CELL-BOT
     1    77   213  -0.728135E+03  -0.415787E+03   0.154552E+03   0.148000E+03
     1    92    77  -0.728135E+03  -0.416098E+03  -0.797966E+02  -0.930000E+02
     1    94    77  -0.728135E+03  -0.184662E+03  -0.945567E+02  -0.102000E+03
     1    94    73  -0.728135E+03  -0.223972E+03  -0.665586E+02  -0.740000E+02


 SOLVING FOR HEAD 
                                                   Max.-Head-Change                        Max.-Flux-Residual
  Residual-Control   Outer-Iter.   Inner-Iter.     Column Row Layer    Max.-Head-Change    Column Row Layer    Max.-Flux-Residual            L2-New               L2-Old           Solver-Max-Delh
          0                 1           3           263   79     1      -0.1250133819E+01     139  122    1       0.6788287246E+03      0.4035880295E+04      0.3334033588E+02     -0.1250133819E+01
          0                 2           2           263   79     1       0.1074269128E+00     139  122    1      -0.6789337623E+02      0.4034723946E+03      0.4035880295E+04      0.1074269128E+00
          0                 3           2           232   92     1       0.5890857384E-02     139  122    1      -0.3394746049E+01      0.2017321578E+02      0.4034723946E+03      0.5890857384E-02

    ------------------------------------------------
       NWT REQUIRED            3 OUTER ITERATIONS 
       AND A TOTAL OF          7 INNER ITERATIONS.
    ------------------------------------------------

 NO OUTPUT CONTROL FOR STRESS PERIOD   77   TIME STEP    2

 WELLS WITH REDUCED PUMPING FOR STRESS PERIOD    77 TIME STEP     2
   LAY   ROW   COL         APPL.Q          ACT.Q        GW-HEAD       CELL-BOT
     1    77   213  -0.728135E+03  -0.424997E+03   0.154654E+03   0.148000E+03
     1    92    77  -0.728135E+03  -0.408387E+03  -0.799681E+02  -0.930000E+02
     1    94    77  -0.728135E+03  -0.187235E+03  -0.944964E+02  -0.102000E+03
     1    94    73  -0.728135E+03  -0.227574E+03  -0.664872E+02  -0.740000E+02


 SOLVING FOR HEAD 
                                                   Max.-Head-Change                        Max.-Flux-Residual
  Residual-Control   Outer-Iter.   Inner-Iter.     Column Row Layer    Max.-Head-Change    Column Row Layer    Max.-Flux-Residual            L2-New               L2-Old           Solver-Max-Delh
          0                 1           3           263   79     1      -0.5124300253E+00     139  122    1       0.6589392777E+03      0.3633614288E+04      0.2017321578E+02     -0.5124300253E+00
          0                 2           2           263   79     1       0.4421427248E-01     139  122    1      -0.6590399340E+02      0.3632955616E+03      0.3633614288E+04      0.4421427248E-01

    ------------------------------------------------
       NWT REQUIRED            2 OUTER ITERATIONS 
       AND A TOTAL OF          5 INNER ITERATIONS.
    ------------------------------------------------

 NO OUTPUT CONTROL FOR STRESS PERIOD   77   TIME STEP    3

 WELLS WITH REDUCED PUMPING FOR STRESS PERIOD    77 TIME STEP     3
   LAY   ROW   COL         APPL.Q          ACT.Q        GW-HEAD       CELL-BOT
     1    77   213  -0.728135E+03  -0.433853E+03   0.154753E+03   0.148000E+03
     1    92    77  -0.728135E+03  -0.402627E+03  -0.800959E+02  -0.930000E+02
     1    94    77  -0.728135E+03  -0.189786E+03  -0.944370E+02  -0.102000E+03
     1    94    73  -0.728135E+03  -0.231132E+03  -0.664170E+02  -0.740000E+02


 SOLVING FOR HEAD 
                                                   Max.-Head-Change                        Max.-Flux-Residual
  Residual-Control   Outer-Iter.   Inner-Iter.     Column Row Layer    Max.-Head-Change    Column Row Layer    Max.-Flux-Residual            L2-New               L2-Old           Solver-Max-Delh
          0                 1           3           341  217     1       0.2702574611E+00     197   82    1       0.6451146721E+03      0.3454013795E+04      0.3632955616E+03      0.2702574611E+00
          0                 2           2           341  217     1      -0.2341463946E-01     197   82    1      -0.6451983217E+02      0.3454123514E+03      0.3454013795E+04     -0.2341463946E-01

    ------------------------------------------------
       NWT REQUIRED            2 OUTER ITERATIONS 
       AND A TOTAL OF          5 INNER ITERATIONS.
    ------------------------------------------------

 NO OUTPUT CONTROL FOR STRESS PERIOD   77   TIME STEP    4

 WELLS WITH REDUCED PUMPING FOR STRESS PERIOD    77 TIME STEP     4
   LAY   ROW   COL         APPL.Q          ACT.Q        GW-HEAD       CELL-BOT
     1    77   213  -0.728135E+03  -0.442324E+03   0.154847E+03   0.148000E+03
     1    92    77  -0.728135E+03  -0.398342E+03  -0.801909E+02  -0.930000E+02
     1    94    77  -0.728135E+03  -0.192301E+03  -0.943786E+02  -0.102000E+03
     1    94    73  -0.728135E+03  -0.234630E+03  -0.663482E+02  -0.740000E+02


 SOLVING FOR HEAD 
                                                   Max.-Head-Change                        Max.-Flux-Residual
  Residual-Control   Outer-Iter.   Inner-Iter.     Column Row Layer    Max.-Head-Change    Column Row Layer    Max.-Flux-Residual            L2-New               L2-Old           Solver-Max-Delh
          0                 1           3           197   82     1       0.2605090078E+00     197   82    1       0.6347917561E+03      0.3342721065E+04      0.3454123514E+03      0.2605090078E+00
          0                 2           2           197   82     1      -0.2250087072E-01     197   82    1      -0.6348732571E+02      0.3342790027E+03      0.3342721065E+04     -0.2250087072E-01

    ------------------------------------------------
       NWT REQUIRED            2 OUTER ITERATIONS 
       AND A TOTAL OF          5 INNER ITERATIONS.
    ------------------------------------------------

 NO OUTPUT CONTROL FOR STRESS PERIOD   77   TIME STEP    5

 WELLS WITH REDUCED PUMPING FOR STRESS PERIOD    77 TIME STEP     5
   LAY   ROW   COL         APPL.Q          ACT.Q        GW-HEAD       CELL-BOT
     1    77   213  -0.728135E+03  -0.450424E+03   0.154938E+03   0.148000E+03
     1    92    77  -0.728135E+03  -0.395144E+03  -0.802617E+02  -0.930000E+02
     1    94    77  -0.728135E+03  -0.194782E+03  -0.943212E+02  -0.102000E+03
     1    94    73  -0.728135E+03  -0.238068E+03  -0.662809E+02  -0.740000E+02


 SOLVING FOR HEAD 
                                                   Max.-Head-Change                        Max.-Flux-Residual
  Residual-Control   Outer-Iter.   Inner-Iter.     Column Row Layer    Max.-Head-Change    Column Row Layer    Max.-Flux-Residual            L2-New               L2-Old           Solver-Max-Delh
          0                 1           3           197   82     1       0.2563515340E+00     197   82    1       0.6246504827E+03      0.3260843672E+04      0.3342790027E+03      0.2563515340E+00
          0                 2           2           197   82     1      -0.2214175612E-01     197   82    1      -0.6247299255E+02      0.3260780852E+03      0.3260843672E+04     -0.2214175612E-01

    ------------------------------------------------
       NWT REQUIRED            2 OUTER ITERATIONS 
       AND A TOTAL OF          5 INNER ITERATIONS.
    ------------------------------------------------

 NO OUTPUT CONTROL FOR STRESS PERIOD   77   TIME STEP    6

 WELLS WITH REDUCED PUMPING FOR STRESS PERIOD    77 TIME STEP     6
   LAY   ROW   COL         APPL.Q          ACT.Q        GW-HEAD       CELL-BOT
     1    77   213  -0.728135E+03  -0.458169E+03   0.155025E+03   0.148000E+03
     1    92    77  -0.728135E+03  -0.392746E+03  -0.803148E+02  -0.930000E+02
     1    94    77  -0.728135E+03  -0.197227E+03  -0.942648E+02  -0.102000E+03
     1    94    73  -0.728135E+03  -0.241445E+03  -0.662150E+02  -0.740000E+02


 SOLVING FOR HEAD 
                                                   Max.-Head-Change                        Max.-Flux-Residual
  Residual-Control   Outer-Iter.   Inner-Iter.     Column Row Layer    Max.-Head-Change    Column Row Layer    Max.-Flux-Residual            L2-New               L2-Old           Solver-Max-Delh
          0                 1           3           197   82     1       0.2522680403E+00     197   82    1       0.6146889870E+03      0.3194907540E+04      0.3260780852E+03      0.2522680403E+00
          0                 2           2           197   82     1      -0.2178903276E-01     197   82    1      -0.6147664405E+02      0.3195262184E+03      0.3194907540E+04     -0.2178903276E-01

    ------------------------------------------------
       NWT REQUIRED            2 OUTER ITERATIONS 
       AND A TOTAL OF          5 INNER ITERATIONS.
    ------------------------------------------------

 NO OUTPUT CONTROL FOR STRESS PERIOD   77   TIME STEP    7

 WELLS WITH REDUCED PUMPING FOR STRESS PERIOD    77 TIME STEP     7
   LAY   ROW   COL         APPL.Q          ACT.Q        GW-HEAD       CELL-BOT
     1    77   213  -0.728135E+03  -0.465573E+03   0.155109E+03   0.148000E+03
     1    92    77  -0.728135E+03  -0.390936E+03  -0.803549E+02  -0.930000E+02
     1    94    77  -0.728135E+03  -0.199638E+03  -0.942095E+02  -0.102000E+03
     1    94    73  -0.728135E+03  -0.244761E+03  -0.661504E+02  -0.740000E+02


 SOLVING FOR HEAD 
                                                   Max.-Head-Change                        Max.-Flux-Residual
  Residual-Control   Outer-Iter.   Inner-Iter.     Column Row Layer    Max.-Head-Change    Column Row Layer    Max.-Flux-Residual            L2-New               L2-Old           Solver-Max-Delh
          0                 1           3           197   82     1       0.2482572766E+00     197   82    1       0.6049045916E+03      0.3139022380E+04      0.3195262184E+03      0.2482572766E+00
          0                 2           2           197   82     1      -0.2144259239E-01     197   82    1      -0.6049801147E+02      0.3139670348E+03      0.3139022380E+04     -0.2144259239E-01

    ------------------------------------------------
       NWT REQUIRED            2 OUTER ITERATIONS 
       AND A TOTAL OF          5 INNER ITERATIONS.
    ------------------------------------------------

 NO OUTPUT CONTROL FOR STRESS PERIOD   77   TIME STEP    8

 WELLS WITH REDUCED PUMPING FOR STRESS PERIOD    77 TIME STEP     8
   LAY   ROW   COL         APPL.Q          ACT.Q        GW-HEAD       CELL-BOT
     1    77   213  -0.728135E+03  -0.472650E+03   0.155190E+03   0.148000E+03
     1    92    77  -0.728135E+03  -0.389558E+03  -0.803854E+02  -0.930000E+02
     1    94    77  -0.728135E+03  -0.202013E+03  -0.941551E+02  -0.102000E+03
     1    94    73  -0.728135E+03  -0.248018E+03  -0.660872E+02  -0.740000E+02


 SOLVING FOR HEAD 
                                                   Max.-Head-Change                        Max.-Flux-Residual
  Residual-Control   Outer-Iter.   Inner-Iter.     Column Row Layer    Max.-Head-Change    Column Row Layer    Max.-Flux-Residual            L2-New               L2-Old           Solver-Max-Delh
          0                 1           3           197   82     1       0.2443178724E+00     197   82    1       0.5952941267E+03      0.3090174364E+04      0.3139670348E+03      0.2443178724E+00
          0                 2           2           197   82     1      -0.2110231645E-01     197   82    1      -0.5953677731E+02      0.3090158744E+03      0.3090174364E+04     -0.2110231645E-01

    ------------------------------------------------
       NWT REQUIRED            2 OUTER ITERATIONS 
       AND A TOTAL OF          5 INNER ITERATIONS.
    ------------------------------------------------

 NO OUTPUT CONTROL FOR STRESS PERIOD   77   TIME STEP    9

 WELLS WITH REDUCED PUMPING FOR STRESS PERIOD    77 TIME STEP     9
   LAY   ROW   COL         APPL.Q          ACT.Q        GW-HEAD       CELL-BOT
     1    77   213  -0.728135E+03  -0.479414E+03   0.155267E+03   0.148000E+03
     1    92    77  -0.728135E+03  -0.388497E+03  -0.804088E+02  -0.930000E+02
     1    94    77  -0.728135E+03  -0.204354E+03  -0.941017E+02  -0.102000E+03
     1    94    73  -0.728135E+03  -0.251216E+03  -0.660253E+02  -0.740000E+02


 SOLVING FOR HEAD 
                                                   Max.-Head-Change                        Max.-Flux-Residual
  Residual-Control   Outer-Iter.   Inner-Iter.     Column Row Layer    Max.-Head-Change    Column Row Layer    Max.-Flux-Residual            L2-New               L2-Old           Solver-Max-Delh
          0                 1           3           197   82     1       0.2404485690E+00     197   82    1       0.5858546149E+03      0.3046697608E+04      0.3090158744E+03      0.2404485690E+00
          0                 2           2           197   82     1      -0.2076809618E-01     197   82    1      -0.5859264349E+02      0.3046685199E+03      0.3046697608E+04     -0.2076809618E-01

    ------------------------------------------------
       NWT REQUIRED            2 OUTER ITERATIONS 
       AND A TOTAL OF          5 INNER ITERATIONS.
    ------------------------------------------------

 OUTPUT CONTROL FOR STRESS PERIOD   77   TIME STEP   10
    SAVE HEAD FOR ALL LAYERS

 WELLS WITH REDUCED PUMPING FOR STRESS PERIOD    77 TIME STEP    10
   LAY   ROW   COL         APPL.Q          ACT.Q        GW-HEAD       CELL-BOT
     1    77   213  -0.728135E+03  -0.485878E+03   0.155342E+03   0.148000E+03
     1    92    77  -0.728135E+03  -0.387669E+03  -0.804271E+02  -0.930000E+02
     1    94    77  -0.728135E+03  -0.206660E+03  -0.940493E+02  -0.102000E+03
     1    94    73  -0.728135E+03  -0.254354E+03  -0.659647E+02  -0.740000E+02


 HEAD WILL BE SAVED ON UNIT   51 AT END OF TIME STEP   10, STRESS PERIOD   77
1
  VOLUMETRIC BUDGET FOR ENTIRE MODEL AT END OF TIME STEP   10, STRESS PERIOD  77
  ------------------------------------------------------------------------------

     CUMULATIVE VOLUMES      L**3       RATES FOR THIS TIME STEP      L**3/T
     ------------------                 ------------------------

           IN:                                      IN:
           ---                                      ---
             STORAGE =   736179584.0000               STORAGE =      153195.4844
       CONSTANT HEAD =   119574712.0000         CONSTANT HEAD =       52163.6289
               WELLS =           0.0000                 WELLS =           0.0000
              DRAINS =           0.0000                DRAINS =           0.0000
                  ET =           0.0000                    ET =           0.0000
            RECHARGE =   418980288.0000              RECHARGE =       90826.9219

            TOTAL IN =  1274734592.0000              TOTAL IN =      296186.0312

          OUT:                                     OUT:
          ----                                     ----
             STORAGE =   224097712.0000               STORAGE =       24572.7402
       CONSTANT HEAD =           0.0000         CONSTANT HEAD =           0.0000
               WELLS =   691080192.0000                 WELLS =      153846.2188
              DRAINS =   254389216.0000                DRAINS =       86112.6328
                  ET =   103050360.0000                    ET =       31014.7578
            RECHARGE =      525047.1875              RECHARGE =           0.0000

           TOTAL OUT =  1273142528.0000             TOTAL OUT =      295546.3438

            IN - OUT =     1592064.0000              IN - OUT =         639.6875

 PERCENT DISCREPANCY =           0.12     PERCENT DISCREPANCY =           0.22






         TIME SUMMARY AT END OF TIME STEP   10 IN STRESS PERIOD   77
                    SECONDS     MINUTES      HOURS       DAYS        YEARS
                    -----------------------------------------------------------
   TIME STEP LENGTH 2.62656E+05  4377.6      72.960      3.0400     8.32307E-03
 STRESS PERIOD TIME 2.62656E+06  43776.      729.60      30.400     8.32307E-02
         TOTAL TIME 2.02246E+08 3.37077E+06  56180.      2340.8      6.4088    
1
1
                            STRESS PERIOD NO.   78, LENGTH =   30.40000    
                            -----------------------------------------------

                              NUMBER OF TIME STEPS =    10

                               MULTIPLIER FOR DELT =     1.000

                            INITIAL TIME STEP SIZE =   3.040000    

 WELL NO.  LAYER   ROW   COL   STRESS RATE         
 --------------------------------------------------
      1      1     69    225      -6653.    
      2      1     71    224       0.000    
      3      1     74    220       0.000    
      4      1     73    220       0.000    
      5      1     71    223       0.000    
      6      1     71    223       0.000    
      7      1     72    223       0.000    
      8      1     92    173       0.000    
      9      1     94    174       0.000    
     10      1     93    175       0.000    
     11      1    203    328       0.000    
     12      1    438    460      -3005.    
     13      1    436    461      -3005.    
     14      1    410    454      -3005.    
     15      1    433    460      -3005.    
     16      1    431    462      -3005.    
     17      1    417    459      -3005.    
     18      1    418    458      -3005.    
     19      1    414    455      -3005.    
     20      1    443    464      -3005.    
     21      1    379    425      -3005.    
     22      1    362    405      -3005.    
     23      1    361    405      -3005.    
     24      1    362    406      -3005.    
     25      1    363    408      -3005.    
     26      1    364    410      -3005.    
     27      1    369    418      -3005.    
     28      1    367    417      -3005.    
     29      1    365    415      -3005.    
     30      1    402    447      -3005.    
     31      1    400    446      -3005.    
     32      1    392    444      -3005.    
     33      1    391    441      -3005.    
     34      1    403    448      -3005.    
     35      1    405    447      -3005.    
     36      1    362    410      -3005.    
     37      1    362    411      -3005.    
     38      1    363    412      -3005.    
     39      1    375    421      -3005.    
     40      1    383    430      -3005.    
     41      1    397    445      -3005.    
     42      1    360    403      -3005.    
     43      1    350    401      -3005.    
     44      1    346    393      -4260.    
     45      1    333    387      -4260.    
     46      1    328    384      -4260.    
     47      1    326    383      -4260.    
     48      1    323    378      -4260.    
     49      1    321    378      -4260.    
     50      1    322    376      -4260.    
     51      1    316    374      -4260.    
     52      1    311    371      -4260.    
     53      1    307    369      -4260.    
     54      1    305    368      -4260.    
     55      1    303    368      -4260.    
     56      1    300    369      -4260.    
     57      1    293    364      -4260.    
     58      1    292    362      -4260.    
     59      1    278    350      -4260.    
     60      1    274    351      -4260.    
     61      1    273    350      -4260.    
     62      1    271    350      -4260.    
     63      1    267    348      -4260.    
     64      1    263    348      -4260.    
     65      1    263    348      -4260.    
     66      1    248    347      -4260.    
     67      1    243    342      -4260.    
     68      1    242    339      -4260.    
     69      1    238    341      -4260.    
     70      1    233    340      -4260.    
     71      1    232    340      -4260.    
     72      1    229    341      -4260.    
     73      1    227    341      -4260.    
     74      1    219    342      -4260.    
     75      1    219    336      -4260.    
     76      1    199    329      -4260.    
     77      1    191    332      -5038.    
     78      1    190    332      -5038.    
     79      1    130    310      -5038.    
     80      1    123    305      -5038.    
     81      1    104    289      -5038.    
     82      1     96    287      -4290.    
     83      1     95    284      -4290.    
     84      1     95    280      -4290.    
     85      1     93    276      -4290.    
     86      1     94    275      -4290.    
     87      1     90    277      -4290.    
     88      1     90    273      -4290.    
     89      1     86    271      -4290.    
     90      1     85    270      -4290.    
     91      1     84    265      -4290.    
     92      1     85    265      -4290.    
     93      1     84    264      -4290.    
     94      1     79    263      -4290.    
     95      1     79    263      -4290.    
     96      1     76    262      -4290.    
     97      1     73    257      -4290.    
     98      1     74    255      -4290.    
     99      1     71    255      -4290.    
    100      1     66    253      -4290.    
    101      1     68    252      -4290.    
    102      1     69    250      -4290.    
    103      1     65    248      -4290.    
    104      1     68    248      -4290.    
    105      1     69    247      -4290.    
    106      1     73    247      -4290.    
    107      1     64    246      -4290.    
    108      1     69    245      -4290.    
    109      1     72    245      -4290.    
    110      1     69    241      -4290.    
    111      1     73    238      -4290.    
    112      1     70    238      -4290.    
    113      1     76    263      -4290.    
    114      1     66    232      -2310.    
    115      1     69    229      -2310.    
    116      1     71    228      -2310.    
    117      1     69    227      -2310.    
    118      1     72    219      -2310.    
    119      1     72    218      -2310.    
    120      1     72    218      -2310.    
    121      1     73    217      -2310.    
    122      1     77    219      -2310.    
    123      1     78    219      -2310.    
    124      1     83    213      -2310.    
    125      1     77    213      -2310.    
    126      1     81    211      -2310.    
    127      1     81    210      -2310.    
    128      1     81    210      -2310.    
    129      1     82    208      -2310.    
    130      1     80    205      -2310.    
    131      1     86    202      -2310.    
    132      1     84    200      -2310.    
    133      1     89    200      -2310.    
    134      1     89    199      -2310.    
    135      1     88    199      -2310.    
    136      1     86    199      -2310.    
    137      1     85    199      -2310.    
    138      1     82    197      -2310.    
    139      1     86    197      -2310.    
    140      1     88    198      -2310.    
    141      1     90    192      -2310.    
    142      1     89    191      -2310.    
    143      1     84    192      -2310.    
    144      1     91    189      -2310.    
    145      1     92    185      -2310.    
    146      1     87    183      -2310.    
    147      1     92    182      -2310.    
    148      1     90    182      -2310.    
    149      1     88    179      -2310.    
    150      1     89    176      -2310.    
    151      1     92    172      -2310.    
    152      1     93    164      -2310.    
    153      1     94    162      -2310.    
    154      1    103    156      -2310.    
    155      1    103    156      -2310.    
    156      1     96    154      -2310.    
    157      1     97    153      -2310.    
    158      1    122    139      -2310.    
    159      1     92     77      -2310.    
    160      1     94     77      -2310.    
    161      1     94     73      -2310.    
    162      1     97    152      -2310.    
    163      1    118    337      -666.7    
    164      1    133    319      -2678.    
    165      1    131    320      -3951.    
    166      1    133    321      -2956.    
    167      1    161    329      -2141.    
    168      1    178    330      -551.0    
    169      1    163    330      -1122.    
    170      1    131    320      -2473.    
    171      1    129    315      -3937.    
    172      1    162    329      -1959.    
    173      1    131    311      -826.1    
    174      1    221    340      -1994.    
    175      1    220    340      -1034.    
    176      1    221    340      -667.7    
    177      1    137    322      -2082.    
    178      1    137    321      -1407.    
    179      1    185    329      -2012.    
    180      1    183    329      -1473.    
    181      1    175    329      -585.3    
    182      1     79    243      -1490.    
    183      1     77    245      -2414.    
    184      1    199    329      -1617.    
    185      1    198    330      -2514.    
    186      1    140    328      -972.1    
    187      1    143    327      -863.6    
    188      1    139    327      -1331.    

    188 WELLS

 REUSING NON-PARAMETER DRAINS FROM LAST STRESS PERIOD

   1061 DRAINS

 REUSING SURF FROM LAST STRESS PERIOD

 REUSING EVTR FROM LAST STRESS PERIOD

 REUSING EXDP FROM LAST STRESS PERIOD



                           RECHARGE
 READING ON UNIT   19 WITH FORMAT: (510E15.6)          

 SOLVING FOR HEAD 
                                                   Max.-Head-Change                        Max.-Flux-Residual
  Residual-Control   Outer-Iter.   Inner-Iter.     Column Row Layer    Max.-Head-Change    Column Row Layer    Max.-Flux-Residual            L2-New               L2-Old           Solver-Max-Delh
          0                 1           3           263   79     1      -0.2006180319E+02     348  263    1      -0.7068768943E+04      0.3185083840E+05      0.3046685199E+03     -0.2006180319E+02
          0                 2           2           263   79     1       0.1508304479E+01     238   70    1       0.8358878548E+03      0.3260371502E+04      0.3185083840E+05      0.1508304479E+01
          0                 3           2           263   79     1       0.7353102386E-01     238   70    1       0.4174859049E+02      0.1626181050E+03      0.3260371502E+04      0.7353102386E-01

    ------------------------------------------------
       NWT REQUIRED            3 OUTER ITERATIONS 
       AND A TOTAL OF          7 INNER ITERATIONS.
    ------------------------------------------------

 NO OUTPUT CONTROL FOR STRESS PERIOD   78   TIME STEP    1

 WELLS WITH REDUCED PUMPING FOR STRESS PERIOD    78 TIME STEP     1
   LAY   ROW   COL         APPL.Q          ACT.Q        GW-HEAD       CELL-BOT
     1    77   213  -0.230952E+04  -0.146147E+04   0.155055E+03   0.148000E+03
     1    92    77  -0.230952E+04  -0.808916E+03  -0.833879E+02  -0.930000E+02
     1    94    77  -0.230952E+04  -0.640944E+03  -0.941537E+02  -0.102000E+03
     1    94    73  -0.230952E+04  -0.784965E+03  -0.660976E+02  -0.740000E+02


 SOLVING FOR HEAD 
                                                   Max.-Head-Change                        Max.-Flux-Residual
  Residual-Control   Outer-Iter.   Inner-Iter.     Column Row Layer    Max.-Head-Change    Column Row Layer    Max.-Flux-Residual            L2-New               L2-Old           Solver-Max-Delh
          0                 1           3           263   79     1      -0.8837397778E+01     374  316    1      -0.3006684506E+04      0.1536418961E+05      0.1626181050E+03     -0.8837397778E+01
          0                 2           3           263   79     1       0.7003477506E+00     374  316    1       0.3004080387E+03      0.1526447680E+04      0.1536418961E+05      0.7003477506E+00
          0                 3           2           263   79     1       0.3446036141E-01     374  316    1       0.1501845361E+02      0.7624186136E+02      0.1526447680E+04      0.3446036141E-01

    ------------------------------------------------
       NWT REQUIRED            3 OUTER ITERATIONS 
       AND A TOTAL OF          8 INNER ITERATIONS.
    ------------------------------------------------

 NO OUTPUT CONTROL FOR STRESS PERIOD   78   TIME STEP    2

 WELLS WITH REDUCED PUMPING FOR STRESS PERIOD    78 TIME STEP     2
   LAY   ROW   COL         APPL.Q          ACT.Q        GW-HEAD       CELL-BOT
     1    77   213  -0.230952E+04  -0.138859E+04   0.154796E+03   0.148000E+03
     1    92    77  -0.230952E+04  -0.613779E+03  -0.848484E+02  -0.930000E+02
     1    94    77  -0.230952E+04  -0.627215E+03  -0.942529E+02  -0.102000E+03
     1    94    73  -0.230952E+04  -0.764568E+03  -0.662227E+02  -0.740000E+02


 SOLVING FOR HEAD 
                                                   Max.-Head-Change                        Max.-Flux-Residual
  Residual-Control   Outer-Iter.   Inner-Iter.     Column Row Layer    Max.-Head-Change    Column Row Layer    Max.-Flux-Residual            L2-New               L2-Old           Solver-Max-Delh
          0                 1           3           263   79     1      -0.4262011883E+01     374  316    1      -0.2701232659E+04      0.1226078073E+05      0.7624186136E+02     -0.4262011883E+01
          0                 2           2           263   79     1       0.3497147405E+00     374  316    1       0.2698686005E+03      0.1223135705E+04      0.1226078073E+05      0.3497147405E+00
          0                 3           2           263   79     1       0.1731630881E-01     374  316    1       0.1349152544E+02      0.6112545209E+02      0.1223135705E+04      0.1731630881E-01

    ------------------------------------------------
       NWT REQUIRED            3 OUTER ITERATIONS 
       AND A TOTAL OF          7 INNER ITERATIONS.
    ------------------------------------------------

 NO OUTPUT CONTROL FOR STRESS PERIOD   78   TIME STEP    3

 WELLS WITH REDUCED PUMPING FOR STRESS PERIOD    78 TIME STEP     3
   LAY   ROW   COL         APPL.Q          ACT.Q        GW-HEAD       CELL-BOT
     1    77   213  -0.230952E+04  -0.132235E+04   0.154564E+03   0.148000E+03
     1    92    77  -0.230952E+04  -0.520617E+03  -0.855900E+02  -0.930000E+02
     1    94    77  -0.230952E+04  -0.614251E+03  -0.943472E+02  -0.102000E+03
     1    94    73  -0.230952E+04  -0.745480E+03  -0.663404E+02  -0.740000E+02


 SOLVING FOR HEAD 
                                                   Max.-Head-Change                        Max.-Flux-Residual
  Residual-Control   Outer-Iter.   Inner-Iter.     Column Row Layer    Max.-Head-Change    Column Row Layer    Max.-Flux-Residual            L2-New               L2-Old           Solver-Max-Delh
          0                 1           3           263   79     1      -0.2293174908E+01     374  316    1      -0.2433314158E+04      0.1080091860E+05      0.6112545209E+02     -0.2293174908E+01
          0                 2           2           263   79     1       0.1920240229E+00     374  316    1       0.2430919524E+03      0.1078741516E+04      0.1080091860E+05      0.1920240229E+00
          0                 3           2           263   79     1       0.9544063126E-02     374  316    1       0.1215280991E+02      0.5403750117E+02      0.1078741516E+04      0.9544063126E-02

    ------------------------------------------------
       NWT REQUIRED            3 OUTER ITERATIONS 
       AND A TOTAL OF          7 INNER ITERATIONS.
    ------------------------------------------------

 NO OUTPUT CONTROL FOR STRESS PERIOD   78   TIME STEP    4

 WELLS WITH REDUCED PUMPING FOR STRESS PERIOD    78 TIME STEP     4
   LAY   ROW   COL         APPL.Q          ACT.Q        GW-HEAD       CELL-BOT
     1    77   213  -0.230952E+04  -0.126242E+04   0.154356E+03   0.148000E+03
     1    92    77  -0.230952E+04  -0.474363E+03  -0.859735E+02  -0.930000E+02
     1    94    77  -0.230952E+04  -0.602004E+03  -0.944367E+02  -0.102000E+03
     1    94    73  -0.230952E+04  -0.727612E+03  -0.664512E+02  -0.740000E+02


 SOLVING FOR HEAD 
                                                   Max.-Head-Change                        Max.-Flux-Residual
  Residual-Control   Outer-Iter.   Inner-Iter.     Column Row Layer    Max.-Head-Change    Column Row Layer    Max.-Flux-Residual            L2-New               L2-Old           Solver-Max-Delh
          0                 1           3           263   79     1      -0.1389980690E+01     378  321    1      -0.2211412855E+04      0.9921178599E+04      0.5403750117E+02     -0.1389980690E+01
          0                 2           2           263   79     1       0.1177446847E+00     378  321    1       0.2209051747E+03      0.9950512973E+03      0.9921178599E+04      0.1177446847E+00
          0                 3           2           263   79     1       0.5864963093E-02     378  321    1       0.1104349345E+02      0.4974548171E+02      0.9950512973E+03      0.5864963093E-02

    ------------------------------------------------
       NWT REQUIRED            3 OUTER ITERATIONS 
       AND A TOTAL OF          7 INNER ITERATIONS.
    ------------------------------------------------

 NO OUTPUT CONTROL FOR STRESS PERIOD   78   TIME STEP    5

 WELLS WITH REDUCED PUMPING FOR STRESS PERIOD    78 TIME STEP     5
   LAY   ROW   COL         APPL.Q          ACT.Q        GW-HEAD       CELL-BOT
     1    77   213  -0.230952E+04  -0.120840E+04   0.154169E+03   0.148000E+03
     1    92    77  -0.230952E+04  -0.450769E+03  -0.861740E+02  -0.930000E+02
     1    94    77  -0.230952E+04  -0.590430E+03  -0.945218E+02  -0.102000E+03
     1    94    73  -0.230952E+04  -0.710879E+03  -0.665556E+02  -0.740000E+02


 SOLVING FOR HEAD 
                                                   Max.-Head-Change                        Max.-Flux-Residual
  Residual-Control   Outer-Iter.   Inner-Iter.     Column Row Layer    Max.-Head-Change    Column Row Layer    Max.-Flux-Residual            L2-New               L2-Old           Solver-Max-Delh
          0                 1           3           264   78     1      -0.9857681125E+00     378  321    1      -0.2030519539E+04      0.9321742998E+04      0.4974548171E+02     -0.9857681125E+00
          0                 2           2           264   78     1       0.8382210349E-01     378  321    1       0.2028263853E+03      0.9315272883E+03      0.9321742998E+04      0.8382210349E-01

    ------------------------------------------------
       NWT REQUIRED            2 OUTER ITERATIONS 
       AND A TOTAL OF          5 INNER ITERATIONS.
    ------------------------------------------------

 NO OUTPUT CONTROL FOR STRESS PERIOD   78   TIME STEP    6

 WELLS WITH REDUCED PUMPING FOR STRESS PERIOD    78 TIME STEP     6
   LAY   ROW   COL         APPL.Q          ACT.Q        GW-HEAD       CELL-BOT
     1    77   213  -0.230952E+04  -0.115959E+04   0.154000E+03   0.148000E+03
     1    92    77  -0.230952E+04  -0.438492E+03  -0.862796E+02  -0.930000E+02
     1    94    77  -0.230952E+04  -0.579436E+03  -0.946032E+02  -0.102000E+03
     1    94    73  -0.230952E+04  -0.695127E+03  -0.666544E+02  -0.740000E+02


 SOLVING FOR HEAD 
                                                   Max.-Head-Change                        Max.-Flux-Residual
  Residual-Control   Outer-Iter.   Inner-Iter.     Column Row Layer    Max.-Head-Change    Column Row Layer    Max.-Flux-Residual            L2-New               L2-Old           Solver-Max-Delh
          0                 1           3           264   78     1      -0.8494657546E+00     378  321    1      -0.1869592030E+04      0.8882758195E+04      0.4658876079E+02     -0.8494657546E+00
          0                 2           2           264   78     1       0.7223493108E-01     378  321    1       0.1867473858E+03      0.8877880902E+03      0.8882758195E+04      0.7223493108E-01

    ------------------------------------------------
       NWT REQUIRED            2 OUTER ITERATIONS 
       AND A TOTAL OF          5 INNER ITERATIONS.
    ------------------------------------------------

 NO OUTPUT CONTROL FOR STRESS PERIOD   78   TIME STEP    7

 WELLS WITH REDUCED PUMPING FOR STRESS PERIOD    78 TIME STEP     7
   LAY   ROW   COL         APPL.Q          ACT.Q        GW-HEAD       CELL-BOT
     1    77   213  -0.230952E+04  -0.111579E+04   0.153849E+03   0.148000E+03
     1    92    77  -0.230952E+04  -0.432117E+03  -0.863349E+02  -0.930000E+02
     1    94    77  -0.230952E+04  -0.569040E+03  -0.946805E+02  -0.102000E+03
     1    94    73  -0.230952E+04  -0.680368E+03  -0.667475E+02  -0.740000E+02


 SOLVING FOR HEAD 
                                                   Max.-Head-Change                        Max.-Flux-Residual
  Residual-Control   Outer-Iter.   Inner-Iter.     Column Row Layer    Max.-Head-Change    Column Row Layer    Max.-Flux-Residual            L2-New               L2-Old           Solver-Max-Delh
          0                 1           3           343  217     1      -0.7876162828E+00     378  321    1      -0.1726775471E+04      0.8549354335E+04      0.4440534931E+02     -0.7876162828E+00
          0                 2           2           343  217     1       0.6747353624E-01     378  321    1       0.1724808343E+03      0.8590318913E+03      0.8549354335E+04      0.6747353624E-01

    ------------------------------------------------
       NWT REQUIRED            2 OUTER ITERATIONS 
       AND A TOTAL OF          5 INNER ITERATIONS.
    ------------------------------------------------

 NO OUTPUT CONTROL FOR STRESS PERIOD   78   TIME STEP    8

 WELLS WITH REDUCED PUMPING FOR STRESS PERIOD    78 TIME STEP     8
   LAY   ROW   COL         APPL.Q          ACT.Q        GW-HEAD       CELL-BOT
     1    77   213  -0.230952E+04  -0.107653E+04   0.153713E+03   0.148000E+03
     1    92    77  -0.230952E+04  -0.428805E+03  -0.863638E+02  -0.930000E+02
     1    94    77  -0.230952E+04  -0.559205E+03  -0.947540E+02  -0.102000E+03
     1    94    73  -0.230952E+04  -0.666533E+03  -0.668353E+02  -0.740000E+02


 SOLVING FOR HEAD 
                                                   Max.-Head-Change                        Max.-Flux-Residual
  Residual-Control   Outer-Iter.   Inner-Iter.     Column Row Layer    Max.-Head-Change    Column Row Layer    Max.-Flux-Residual            L2-New               L2-Old           Solver-Max-Delh
          0                 1           3           343  217     1      -0.7412324029E+00     378  321    1      -0.1599676315E+04      0.8287651479E+04      0.4294875712E+02     -0.7412324029E+00
          0                 2           2           343  217     1       0.6351470064E-01     378  321    1       0.1597862793E+03      0.8285646736E+03      0.8287651479E+04      0.6351470064E-01

    ------------------------------------------------
       NWT REQUIRED            2 OUTER ITERATIONS 
       AND A TOTAL OF          5 INNER ITERATIONS.
    ------------------------------------------------

 NO OUTPUT CONTROL FOR STRESS PERIOD   78   TIME STEP    9

 WELLS WITH REDUCED PUMPING FOR STRESS PERIOD    78 TIME STEP     9
   LAY   ROW   COL         APPL.Q          ACT.Q        GW-HEAD       CELL-BOT
     1    77   213  -0.230952E+04  -0.104136E+04   0.153591E+03   0.148000E+03
     1    92    77  -0.230952E+04  -0.427095E+03  -0.863787E+02  -0.930000E+02
     1    94    77  -0.230952E+04  -0.549898E+03  -0.948240E+02  -0.102000E+03
     1    94    73  -0.230952E+04  -0.653558E+03  -0.669180E+02  -0.740000E+02


 SOLVING FOR HEAD 
                                                   Max.-Head-Change                        Max.-Flux-Residual
  Residual-Control   Outer-Iter.   Inner-Iter.     Column Row Layer    Max.-Head-Change    Column Row Layer    Max.-Flux-Residual            L2-New               L2-Old           Solver-Max-Delh
          0                 1           3           343  217     1      -0.6934588300E+00     378  321    1      -0.1486265659E+04      0.8077821518E+04      0.4142625702E+02     -0.6934588300E+00
          0                 2           2           343  217     1       0.5944307920E-01     378  321    1       0.1484601810E+03      0.8076421086E+03      0.8077821518E+04      0.5944307920E-01

    ------------------------------------------------
       NWT REQUIRED            2 OUTER ITERATIONS 
       AND A TOTAL OF          5 INNER ITERATIONS.
    ------------------------------------------------

 OUTPUT CONTROL FOR STRESS PERIOD   78   TIME STEP   10
    SAVE HEAD FOR ALL LAYERS

 WELLS WITH REDUCED PUMPING FOR STRESS PERIOD    78 TIME STEP    10
   LAY   ROW   COL         APPL.Q          ACT.Q        GW-HEAD       CELL-BOT
     1    77   213  -0.230952E+04  -0.100986E+04   0.153482E+03   0.148000E+03
     1    92    77  -0.230952E+04  -0.426228E+03  -0.863863E+02  -0.930000E+02
     1    94    77  -0.230952E+04  -0.541086E+03  -0.948905E+02  -0.102000E+03
     1    94    73  -0.230952E+04  -0.641385E+03  -0.669961E+02  -0.740000E+02


 HEAD WILL BE SAVED ON UNIT   51 AT END OF TIME STEP   10, STRESS PERIOD   78
1
  VOLUMETRIC BUDGET FOR ENTIRE MODEL AT END OF TIME STEP   10, STRESS PERIOD  78
  ------------------------------------------------------------------------------

     CUMULATIVE VOLUMES      L**3       RATES FOR THIS TIME STEP      L**3/T
     ------------------                 ------------------------

           IN:                                      IN:
           ---                                      ---
             STORAGE =   748965440.0000               STORAGE =      413413.3125
       CONSTANT HEAD =   121160520.0000         CONSTANT HEAD =       52165.6992
               WELLS =           0.0000                 WELLS =           0.0000
              DRAINS =           0.0000                DRAINS =           0.0000
                  ET =           0.0000                    ET =           0.0000
            RECHARGE =   423075328.0000              RECHARGE =      134709.6094

            TOTAL IN =  1293201280.0000              TOTAL IN =      600288.6250

          OUT:                                     OUT:
          ----                                     ----
             STORAGE =   224482848.0000               STORAGE =        9315.5908
       CONSTANT HEAD =           0.0000         CONSTANT HEAD =           0.0000
               WELLS =   705758400.0000                 WELLS =      482451.5000
              DRAINS =   256845552.0000                DRAINS =       77185.9688
                  ET =   103965272.0000                    ET =       29320.9219
            RECHARGE =      525047.1875              RECHARGE =           0.0000

           TOTAL OUT =  1291577216.0000             TOTAL OUT =      598274.0000

            IN - OUT =     1624064.0000              IN - OUT =        2014.6250

 PERCENT DISCREPANCY =           0.13     PERCENT DISCREPANCY =           0.34






         TIME SUMMARY AT END OF TIME STEP   10 IN STRESS PERIOD   78
                    SECONDS     MINUTES      HOURS       DAYS        YEARS
                    -----------------------------------------------------------
   TIME STEP LENGTH 2.62656E+05  4377.6      72.960      3.0400     8.32307E-03
 STRESS PERIOD TIME 2.62656E+06  43776.      729.60      30.400     8.32307E-02
         TOTAL TIME 2.04873E+08 3.41455E+06  56909.      2371.2      6.4920    
1
1
                            STRESS PERIOD NO.   79, LENGTH =   30.40000    
                            -----------------------------------------------

                              NUMBER OF TIME STEPS =    10

                               MULTIPLIER FOR DELT =     1.000

                            INITIAL TIME STEP SIZE =   3.040000    

 WELL NO.  LAYER   ROW   COL   STRESS RATE         
 --------------------------------------------------
      1      1     69    225      -6739.    
      2      1     71    224       0.000    
      3      1     74    220       0.000    
      4      1     73    220       0.000    
      5      1     71    223       0.000    
      6      1     71    223       0.000    
      7      1     72    223       0.000    
      8      1     92    173       0.000    
      9      1     94    174       0.000    
     10      1     93    175       0.000    
     11      1    203    328       0.000    
     12      1    438    460      -2538.    
     13      1    436    461      -2538.    
     14      1    410    454      -2538.    
     15      1    433    460      -2538.    
     16      1    431    462      -2538.    
     17      1    417    459      -2538.    
     18      1    418    458      -2538.    
     19      1    414    455      -2538.    
     20      1    443    464      -2538.    
     21      1    379    425      -2538.    
     22      1    362    405      -2538.    
     23      1    361    405      -2538.    
     24      1    362    406      -2538.    
     25      1    363    408      -2538.    
     26      1    364    410      -2538.    
     27      1    369    418      -2538.    
     28      1    367    417      -2538.    
     29      1    365    415      -2538.    
     30      1    402    447      -2538.    
     31      1    400    446      -2538.    
     32      1    392    444      -2538.    
     33      1    391    441      -2538.    
     34      1    403    448      -2538.    
     35      1    405    447      -2538.    
     36      1    362    410      -2538.    
     37      1    362    411      -2538.    
     38      1    363    412      -2538.    
     39      1    375    421      -2538.    
     40      1    383    430      -2538.    
     41      1    397    445      -2538.    
     42      1    360    403      -2538.    
     43      1    350    401      -2538.    
     44      1    346    393      -3634.    
     45      1    333    387      -3634.    
     46      1    328    384      -3634.    
     47      1    326    383      -3634.    
     48      1    323    378      -3634.    
     49      1    321    378      -3634.    
     50      1    322    376      -3634.    
     51      1    316    374      -3634.    
     52      1    311    371      -3634.    
     53      1    307    369      -3634.    
     54      1    305    368      -3634.    
     55      1    303    368      -3634.    
     56      1    300    369      -3634.    
     57      1    293    364      -3634.    
     58      1    292    362      -3634.    
     59      1    278    350      -3634.    
     60      1    274    351      -3634.    
     61      1    273    350      -3634.    
     62      1    271    350      -3634.    
     63      1    267    348      -3634.    
     64      1    263    348      -3634.    
     65      1    263    348      -3634.    
     66      1    248    347      -3634.    
     67      1    243    342      -3634.    
     68      1    242    339      -3634.    
     69      1    238    341      -3634.    
     70      1    233    340      -3634.    
     71      1    232    340      -3634.    
     72      1    229    341      -3634.    
     73      1    227    341      -3634.    
     74      1    219    342      -3634.    
     75      1    219    336      -3634.    
     76      1    199    329      -3634.    
     77      1    191    332      -4445.    
     78      1    190    332      -4445.    
     79      1    130    310      -4445.    
     80      1    123    305      -4445.    
     81      1    104    289      -4445.    
     82      1     96    287      -3788.    
     83      1     95    284      -3788.    
     84      1     95    280      -3788.    
     85      1     93    276      -3788.    
     86      1     94    275      -3788.    
     87      1     90    277      -3788.    
     88      1     90    273      -3788.    
     89      1     86    271      -3788.    
     90      1     85    270      -3788.    
     91      1     84    265      -3788.    
     92      1     85    265      -3788.    
     93      1     84    264      -3788.    
     94      1     79    263      -3788.    
     95      1     79    263      -3788.    
     96      1     76    262      -3788.    
     97      1     73    257      -3788.    
     98      1     74    255      -3788.    
     99      1     71    255      -3788.    
    100      1     66    253      -3788.    
    101      1     68    252      -3788.    
    102      1     69    250      -3788.    
    103      1     65    248      -3788.    
    104      1     68    248      -3788.    
    105      1     69    247      -3788.    
    106      1     73    247      -3788.    
    107      1     64    246      -3788.    
    108      1     69    245      -3788.    
    109      1     72    245      -3788.    
    110      1     69    241      -3788.    
    111      1     73    238      -3788.    
    112      1     70    238      -3788.    
    113      1     76    263      -3788.    
    114      1     66    232      -2343.    
    115      1     69    229      -2343.    
    116      1     71    228      -2343.    
    117      1     69    227      -2343.    
    118      1     72    219      -2343.    
    119      1     72    218      -2343.    
    120      1     72    218      -2343.    
    121      1     73    217      -2343.    
    122      1     77    219      -2343.    
    123      1     78    219      -2343.    
    124      1     83    213      -2343.    
    125      1     77    213      -2343.    
    126      1     81    211      -2343.    
    127      1     81    210      -2343.    
    128      1     81    210      -2343.    
    129      1     82    208      -2343.    
    130      1     80    205      -2343.    
    131      1     86    202      -2343.    
    132      1     84    200      -2343.    
    133      1     89    200      -2343.    
    134      1     89    199      -2343.    
    135      1     88    199      -2343.    
    136      1     86    199      -2343.    
    137      1     85    199      -2343.    
    138      1     82    197      -2343.    
    139      1     86    197      -2343.    
    140      1     88    198      -2343.    
    141      1     90    192      -2343.    
    142      1     89    191      -2343.    
    143      1     84    192      -2343.    
    144      1     91    189      -2343.    
    145      1     92    185      -2343.    
    146      1     87    183      -2343.    
    147      1     92    182      -2343.    
    148      1     90    182      -2343.    
    149      1     88    179      -2343.    
    150      1     89    176      -2343.    
    151      1     92    172      -2343.    
    152      1     93    164      -2343.    
    153      1     94    162      -2343.    
    154      1    103    156      -2343.    
    155      1    103    156      -2343.    
    156      1     96    154      -2343.    
    157      1     97    153      -2343.    
    158      1    122    139      -2343.    
    159      1     92     77      -2343.    
    160      1     94     77      -2343.    
    161      1     94     73      -2343.    
    162      1     97    152      -2343.    
    163      1    118    337      -666.7    
    164      1    133    319      -2678.    
    165      1    131    320      -3951.    
    166      1    133    321      -2956.    
    167      1    161    329      -2141.    
    168      1    178    330      -551.0    
    169      1    163    330      -1122.    
    170      1    131    320      -2473.    
    171      1    129    315      -3937.    
    172      1    162    329      -1959.    
    173      1    131    311      -826.1    
    174      1    221    340      -1994.    
    175      1    220    340      -1034.    
    176      1    221    340      -667.7    
    177      1    137    322      -2082.    
    178      1    137    321      -1407.    
    179      1    185    329      -2012.    
    180      1    183    329      -1473.    
    181      1    175    329      -585.3    
    182      1     79    243      -1490.    
    183      1     77    245      -2414.    
    184      1    199    329      -1617.    
    185      1    198    330      -2514.    
    186      1    140    328      -972.1    
    187      1    143    327      -863.6    
    188      1    139    327      -1331.    

    188 WELLS

 REUSING NON-PARAMETER DRAINS FROM LAST STRESS PERIOD

   1061 DRAINS

 REUSING SURF FROM LAST STRESS PERIOD

 REUSING EVTR FROM LAST STRESS PERIOD

 REUSING EXDP FROM LAST STRESS PERIOD



                           RECHARGE
 READING ON UNIT   19 WITH FORMAT: (510E15.6)          

 SOLVING FOR HEAD 
                                                   Max.-Head-Change                        Max.-Flux-Residual
  Residual-Control   Outer-Iter.   Inner-Iter.     Column Row Layer    Max.-Head-Change    Column Row Layer    Max.-Flux-Residual            L2-New               L2-Old           Solver-Max-Delh
          0                 1           3           263   79     1       0.2931797339E+01     348  263    1       0.1116702635E+04      0.8043894279E+04      0.4038045783E+02      0.2931797339E+01
          0                 2           2           263   79     1      -0.2543761719E+00     340  233    1      -0.1717502385E+03      0.8392992797E+03      0.8043894279E+04     -0.2543761719E+00
          0                 3           2           263   79     1      -0.1273113098E-01     340  233    1      -0.8584776163E+01      0.4195836656E+02      0.8392992797E+03     -0.1273113098E-01

    ------------------------------------------------
       NWT REQUIRED            3 OUTER ITERATIONS 
       AND A TOTAL OF          7 INNER ITERATIONS.
    ------------------------------------------------

 NO OUTPUT CONTROL FOR STRESS PERIOD   79   TIME STEP    1

 WELLS WITH REDUCED PUMPING FOR STRESS PERIOD    79 TIME STEP     1
   LAY   ROW   COL         APPL.Q          ACT.Q        GW-HEAD       CELL-BOT
     1    77   213  -0.234339E+04  -0.994806E+03   0.153379E+03   0.148000E+03
     1    92    77  -0.234339E+04  -0.429385E+03  -0.864129E+02  -0.930000E+02
     1    94    77  -0.234339E+04  -0.540238E+03  -0.949563E+02  -0.102000E+03
     1    94    73  -0.234339E+04  -0.638757E+03  -0.670725E+02  -0.740000E+02


 SOLVING FOR HEAD 
                                                   Max.-Head-Change                        Max.-Flux-Residual
  Residual-Control   Outer-Iter.   Inner-Iter.     Column Row Layer    Max.-Head-Change    Column Row Layer    Max.-Flux-Residual            L2-New               L2-Old           Solver-Max-Delh
          0                 1           3           263   79     1       0.1127856519E+01     213   83    1      -0.8938589514E+03      0.6685785909E+04      0.4195836656E+02      0.1127856519E+01
          0                 2           2           263   79     1      -0.9727431634E-01     213   83    1       0.8936144728E+02      0.6684063995E+03      0.6685785909E+04     -0.9727431634E-01

    ------------------------------------------------
       NWT REQUIRED            2 OUTER ITERATIONS 
       AND A TOTAL OF          5 INNER ITERATIONS.
    ------------------------------------------------

 NO OUTPUT CONTROL FOR STRESS PERIOD   79   TIME STEP    2

 WELLS WITH REDUCED PUMPING FOR STRESS PERIOD    79 TIME STEP     2
   LAY   ROW   COL         APPL.Q          ACT.Q        GW-HEAD       CELL-BOT
     1    77   213  -0.234339E+04  -0.967956E+03   0.153287E+03   0.148000E+03
     1    92    77  -0.234339E+04  -0.427785E+03  -0.864267E+02  -0.930000E+02
     1    94    77  -0.234339E+04  -0.531882E+03  -0.950191E+02  -0.102000E+03
     1    94    73  -0.234339E+04  -0.627412E+03  -0.671449E+02  -0.740000E+02


 SOLVING FOR HEAD 
                                                   Max.-Head-Change                        Max.-Flux-Residual
  Residual-Control   Outer-Iter.   Inner-Iter.     Column Row Layer    Max.-Head-Change    Column Row Layer    Max.-Flux-Residual            L2-New               L2-Old           Solver-Max-Delh
          0                 1           3           343  217     1      -0.4050577827E+00     213   83    1      -0.8809054980E+03      0.6503171897E+04      0.3341909199E+02     -0.4050577827E+00
          0                 2           2           343  217     1       0.3477632443E-01     213   83    1       0.8806657528E+02      0.6502342070E+03      0.6503171897E+04      0.3477632443E-01

    ------------------------------------------------
       NWT REQUIRED            2 OUTER ITERATIONS 
       AND A TOTAL OF          5 INNER ITERATIONS.
    ------------------------------------------------

 NO OUTPUT CONTROL FOR STRESS PERIOD   79   TIME STEP    3

 WELLS WITH REDUCED PUMPING FOR STRESS PERIOD    79 TIME STEP     3
   LAY   ROW   COL         APPL.Q          ACT.Q        GW-HEAD       CELL-BOT
     1    77   213  -0.234339E+04  -0.943937E+03   0.153204E+03   0.148000E+03
     1    92    77  -0.234339E+04  -0.426980E+03  -0.864337E+02  -0.930000E+02
     1    94    77  -0.234339E+04  -0.523969E+03  -0.950789E+02  -0.102000E+03
     1    94    73  -0.234339E+04  -0.616764E+03  -0.672132E+02  -0.740000E+02


 SOLVING FOR HEAD 
                                                   Max.-Head-Change                        Max.-Flux-Residual
  Residual-Control   Outer-Iter.   Inner-Iter.     Column Row Layer    Max.-Head-Change    Column Row Layer    Max.-Flux-Residual            L2-New               L2-Old           Solver-Max-Delh
          0                 1           3           213   83     1      -0.3568042300E+00     213   83    1      -0.8682325192E+03      0.6412991108E+04      0.3251099542E+02     -0.3568042300E+00
          0                 2           2           213   83     1       0.3080810901E-01     213   83    1       0.8679974836E+02      0.6459990248E+03      0.6412991108E+04      0.3080810901E-01

    ------------------------------------------------
       NWT REQUIRED            2 OUTER ITERATIONS 
       AND A TOTAL OF          5 INNER ITERATIONS.
    ------------------------------------------------

 NO OUTPUT CONTROL FOR STRESS PERIOD   79   TIME STEP    4

 WELLS WITH REDUCED PUMPING FOR STRESS PERIOD    79 TIME STEP     4
   LAY   ROW   COL         APPL.Q          ACT.Q        GW-HEAD       CELL-BOT
     1    77   213  -0.234339E+04  -0.922440E+03   0.153129E+03   0.148000E+03
     1    92    77  -0.234339E+04  -0.426590E+03  -0.864371E+02  -0.930000E+02
     1    94    77  -0.234339E+04  -0.516472E+03  -0.951358E+02  -0.102000E+03
     1    94    73  -0.234339E+04  -0.606767E+03  -0.672777E+02  -0.740000E+02


 SOLVING FOR HEAD 
                                                   Max.-Head-Change                        Max.-Flux-Residual
  Residual-Control   Outer-Iter.   Inner-Iter.     Column Row Layer    Max.-Head-Change    Column Row Layer    Max.-Flux-Residual            L2-New               L2-Old           Solver-Max-Delh
          0                 1           3           213   83     1      -0.3517490081E+00     213   83    1      -0.8558306230E+03      0.6349407170E+04      0.3229928883E+02     -0.3517490081E+00
          0                 2           2           213   83     1       0.3037165560E-01     213   83    1       0.8556002311E+02      0.6348813443E+03      0.6349407170E+04      0.3037165560E-01

    ------------------------------------------------
       NWT REQUIRED            2 OUTER ITERATIONS 
       AND A TOTAL OF          5 INNER ITERATIONS.
    ------------------------------------------------

 NO OUTPUT CONTROL FOR STRESS PERIOD   79   TIME STEP    5

 WELLS WITH REDUCED PUMPING FOR STRESS PERIOD    79 TIME STEP     5
   LAY   ROW   COL         APPL.Q          ACT.Q        GW-HEAD       CELL-BOT
     1    77   213  -0.234339E+04  -0.903191E+03   0.153062E+03   0.148000E+03
     1    92    77  -0.234339E+04  -0.426417E+03  -0.864386E+02  -0.930000E+02
     1    94    77  -0.234339E+04  -0.509367E+03  -0.951900E+02  -0.102000E+03
     1    94    73  -0.234339E+04  -0.597375E+03  -0.673385E+02  -0.740000E+02


 SOLVING FOR HEAD 
                                                   Max.-Head-Change                        Max.-Flux-Residual
  Residual-Control   Outer-Iter.   Inner-Iter.     Column Row Layer    Max.-Head-Change    Column Row Layer    Max.-Flux-Residual            L2-New               L2-Old           Solver-Max-Delh
          0                 1           3           213   83     1      -0.3468003339E+00     213   83    1      -0.8436919427E+03      0.6298291637E+04      0.3174363266E+02     -0.3468003339E+00
          0                 2           2           213   83     1       0.2994440192E-01     213   83    1       0.8434661189E+02      0.6297768980E+03      0.6298291637E+04      0.2994440192E-01

    ------------------------------------------------
       NWT REQUIRED            2 OUTER ITERATIONS 
       AND A TOTAL OF          5 INNER ITERATIONS.
    ------------------------------------------------

 NO OUTPUT CONTROL FOR STRESS PERIOD   79   TIME STEP    6

 WELLS WITH REDUCED PUMPING FOR STRESS PERIOD    79 TIME STEP     6
   LAY   ROW   COL         APPL.Q          ACT.Q        GW-HEAD       CELL-BOT
     1    77   213  -0.234339E+04  -0.885944E+03   0.153002E+03   0.148000E+03
     1    92    77  -0.234339E+04  -0.426357E+03  -0.864391E+02  -0.930000E+02
     1    94    77  -0.234339E+04  -0.502630E+03  -0.952416E+02  -0.102000E+03
     1    94    73  -0.234339E+04  -0.588550E+03  -0.673959E+02  -0.740000E+02


 SOLVING FOR HEAD 
                                                   Max.-Head-Change                        Max.-Flux-Residual
  Residual-Control   Outer-Iter.   Inner-Iter.     Column Row Layer    Max.-Head-Change    Column Row Layer    Max.-Flux-Residual            L2-New               L2-Old           Solver-Max-Delh
          0                 1           3           213   83     1      -0.3419553995E+00     213   83    1      -0.8318093397E+03      0.6254418862E+04      0.3148861129E+02     -0.3419553995E+00
          0                 2           2           213   83     1       0.2952610531E-01     213   83    1       0.8315880041E+02      0.6253914880E+03      0.6254418862E+04      0.2952610531E-01

    ------------------------------------------------
       NWT REQUIRED            2 OUTER ITERATIONS 
       AND A TOTAL OF          5 INNER ITERATIONS.
    ------------------------------------------------

 NO OUTPUT CONTROL FOR STRESS PERIOD   79   TIME STEP    7

 WELLS WITH REDUCED PUMPING FOR STRESS PERIOD    79 TIME STEP     7
   LAY   ROW   COL         APPL.Q          ACT.Q        GW-HEAD       CELL-BOT
     1    77   213  -0.234339E+04  -0.870481E+03   0.152948E+03   0.148000E+03
     1    92    77  -0.234339E+04  -0.426356E+03  -0.864391E+02  -0.930000E+02
     1    94    77  -0.234339E+04  -0.496241E+03  -0.952908E+02  -0.102000E+03
     1    94    73  -0.234339E+04  -0.580252E+03  -0.674501E+02  -0.740000E+02


 SOLVING FOR HEAD 
                                                   Max.-Head-Change                        Max.-Flux-Residual
  Residual-Control   Outer-Iter.   Inner-Iter.     Column Row Layer    Max.-Head-Change    Column Row Layer    Max.-Flux-Residual            L2-New               L2-Old           Solver-Max-Delh
          0                 1           3           213   83     1      -0.3372116334E+00     213   83    1      -0.8201762849E+03      0.6215384327E+04      0.3126921892E+02     -0.3372116334E+00
          0                 2           2           213   83     1       0.2911654358E-01     213   83    1       0.8199593539E+02      0.6214908544E+03      0.6215384327E+04      0.2911654358E-01

    ------------------------------------------------
       NWT REQUIRED            2 OUTER ITERATIONS 
       AND A TOTAL OF          5 INNER ITERATIONS.
    ------------------------------------------------

 NO OUTPUT CONTROL FOR STRESS PERIOD   79   TIME STEP    8

 WELLS WITH REDUCED PUMPING FOR STRESS PERIOD    79 TIME STEP     8
   LAY   ROW   COL         APPL.Q          ACT.Q        GW-HEAD       CELL-BOT
     1    77   213  -0.234339E+04  -0.856609E+03   0.152899E+03   0.148000E+03
     1    92    77  -0.234339E+04  -0.426385E+03  -0.864389E+02  -0.930000E+02
     1    94    77  -0.234339E+04  -0.490178E+03  -0.953376E+02  -0.102000E+03
     1    94    73  -0.234339E+04  -0.572448E+03  -0.675013E+02  -0.740000E+02


 SOLVING FOR HEAD 
                                                   Max.-Head-Change                        Max.-Flux-Residual
  Residual-Control   Outer-Iter.   Inner-Iter.     Column Row Layer    Max.-Head-Change    Column Row Layer    Max.-Flux-Residual            L2-New               L2-Old           Solver-Max-Delh
          0                 1           3           213   83     1      -0.3325664281E+00     213   83    1      -0.8087861855E+03      0.6179983246E+04      0.3107404707E+02     -0.3325664281E+00
          0                 2           2           213   83     1       0.2871549146E-01     213   83    1       0.8085735732E+02      0.6181818221E+03      0.6179983246E+04      0.2871549146E-01

    ------------------------------------------------
       NWT REQUIRED            2 OUTER ITERATIONS 
       AND A TOTAL OF          5 INNER ITERATIONS.
    ------------------------------------------------

 NO OUTPUT CONTROL FOR STRESS PERIOD   79   TIME STEP    9

 WELLS WITH REDUCED PUMPING FOR STRESS PERIOD    79 TIME STEP     9
   LAY   ROW   COL         APPL.Q          ACT.Q        GW-HEAD       CELL-BOT
     1    77   213  -0.234339E+04  -0.844154E+03   0.152855E+03   0.148000E+03
     1    92    77  -0.234339E+04  -0.426428E+03  -0.864385E+02  -0.930000E+02
     1    94    77  -0.234339E+04  -0.484423E+03  -0.953823E+02  -0.102000E+03
     1    94    73  -0.234339E+04  -0.565104E+03  -0.675497E+02  -0.740000E+02


 SOLVING FOR HEAD 
                                                   Max.-Head-Change                        Max.-Flux-Residual
  Residual-Control   Outer-Iter.   Inner-Iter.     Column Row Layer    Max.-Head-Change    Column Row Layer    Max.-Flux-Residual            L2-New               L2-Old           Solver-Max-Delh
          0                 1           3           213   83     1      -0.3280174314E+00     213   83    1      -0.7976330972E+03      0.6147451440E+04      0.3090874880E+02     -0.3280174314E+00
          0                 2           2           213   83     1       0.2832274577E-01     213   83    1       0.7974247157E+02      0.6147051961E+03      0.6147451440E+04      0.2832274577E-01

    ------------------------------------------------
       NWT REQUIRED            2 OUTER ITERATIONS 
       AND A TOTAL OF          5 INNER ITERATIONS.
    ------------------------------------------------

 OUTPUT CONTROL FOR STRESS PERIOD   79   TIME STEP   10
    SAVE HEAD FOR ALL LAYERS

 WELLS WITH REDUCED PUMPING FOR STRESS PERIOD    79 TIME STEP    10
   LAY   ROW   COL         APPL.Q          ACT.Q        GW-HEAD       CELL-BOT
     1    77   213  -0.234339E+04  -0.832966E+03   0.152816E+03   0.148000E+03
     1    92    77  -0.234339E+04  -0.426478E+03  -0.864380E+02  -0.930000E+02
     1    94    77  -0.234339E+04  -0.478960E+03  -0.954248E+02  -0.102000E+03
     1    94    73  -0.234339E+04  -0.558192E+03  -0.675954E+02  -0.740000E+02


 HEAD WILL BE SAVED ON UNIT   51 AT END OF TIME STEP   10, STRESS PERIOD   79
1
  VOLUMETRIC BUDGET FOR ENTIRE MODEL AT END OF TIME STEP   10, STRESS PERIOD  79
  ------------------------------------------------------------------------------

     CUMULATIVE VOLUMES      L**3       RATES FOR THIS TIME STEP      L**3/T
     ------------------                 ------------------------

           IN:                                      IN:
           ---                                      ---
             STORAGE =   759782976.0000               STORAGE =      353301.8750
       CONSTANT HEAD =   122746384.0000         CONSTANT HEAD =       52167.6797
               WELLS =           0.0000                 WELLS =           0.0000
              DRAINS =           0.0000                DRAINS =           0.0000
                  ET =           0.0000                    ET =           0.0000
            RECHARGE =   427600768.0000              RECHARGE =      148867.5781

            TOTAL IN =  1310130176.0000              TOTAL IN =      554337.1250

          OUT:                                     OUT:
          ----                                     ----
             STORAGE =   224794208.0000               STORAGE =        9222.4268
       CONSTANT HEAD =           0.0000         CONSTANT HEAD =           0.0000
               WELLS =   719150656.0000                 WELLS =      440400.1250
              DRAINS =   259136240.0000                DRAINS =       74012.0234
                  ET =   104852648.0000                    ET =       28989.0898
            RECHARGE =      525047.1875              RECHARGE =           0.0000

           TOTAL OUT =  1308458752.0000             TOTAL OUT =      552623.6875

            IN - OUT =     1671424.0000              IN - OUT =        1713.4375

 PERCENT DISCREPANCY =           0.13     PERCENT DISCREPANCY =           0.31






         TIME SUMMARY AT END OF TIME STEP   10 IN STRESS PERIOD   79
                    SECONDS     MINUTES      HOURS       DAYS        YEARS
                    -----------------------------------------------------------
   TIME STEP LENGTH 2.62656E+05  4377.6      72.960      3.0400     8.32307E-03
 STRESS PERIOD TIME 2.62656E+06  43776.      729.60      30.400     8.32307E-02
         TOTAL TIME 2.07499E+08 3.45832E+06  57639.      2401.6      6.5753    
1
1
                            STRESS PERIOD NO.   80, LENGTH =   30.40000    
                            -----------------------------------------------

                              NUMBER OF TIME STEPS =    10

                               MULTIPLIER FOR DELT =     1.000

                            INITIAL TIME STEP SIZE =   3.040000    

 WELL NO.  LAYER   ROW   COL   STRESS RATE         
 --------------------------------------------------
      1      1     69    225      -6826.    
      2      1     71    224       0.000    
      3      1     74    220       0.000    
      4      1     73    220       0.000    
      5      1     71    223       0.000    
      6      1     71    223       0.000    
      7      1     72    223       0.000    
      8      1     92    173       0.000    
      9      1     94    174       0.000    
     10      1     93    175       0.000    
     11      1    203    328       0.000    
     12      1    438    460      -0.000    
     13      1    436    461      -0.000    
     14      1    410    454      -0.000    
     15      1    433    460      -0.000    
     16      1    431    462      -0.000    
     17      1    417    459      -0.000    
     18      1    418    458      -0.000    
     19      1    414    455      -0.000    
     20      1    443    464      -0.000    
     21      1    379    425      -0.000    
     22      1    362    405      -0.000    
     23      1    361    405      -0.000    
     24      1    362    406      -0.000    
     25      1    363    408      -0.000    
     26      1    364    410      -0.000    
     27      1    369    418      -0.000    
     28      1    367    417      -0.000    
     29      1    365    415      -0.000    
     30      1    402    447      -0.000    
     31      1    400    446      -0.000    
     32      1    392    444      -0.000    
     33      1    391    441      -0.000    
     34      1    403    448      -0.000    
     35      1    405    447      -0.000    
     36      1    362    410      -0.000    
     37      1    362    411      -0.000    
     38      1    363    412      -0.000    
     39      1    375    421      -0.000    
     40      1    383    430      -0.000    
     41      1    397    445      -0.000    
     42      1    360    403      -0.000    
     43      1    350    401      -0.000    
     44      1    346    393      -49.88    
     45      1    333    387      -49.88    
     46      1    328    384      -49.88    
     47      1    326    383      -49.88    
     48      1    323    378      -49.88    
     49      1    321    378      -49.88    
     50      1    322    376      -49.88    
     51      1    316    374      -49.88    
     52      1    311    371      -49.88    
     53      1    307    369      -49.88    
     54      1    305    368      -49.88    
     55      1    303    368      -49.88    
     56      1    300    369      -49.88    
     57      1    293    364      -49.88    
     58      1    292    362      -49.88    
     59      1    278    350      -49.88    
     60      1    274    351      -49.88    
     61      1    273    350      -49.88    
     62      1    271    350      -49.88    
     63      1    267    348      -49.88    
     64      1    263    348      -49.88    
     65      1    263    348      -49.88    
     66      1    248    347      -49.88    
     67      1    243    342      -49.88    
     68      1    242    339      -49.88    
     69      1    238    341      -49.88    
     70      1    233    340      -49.88    
     71      1    232    340      -49.88    
     72      1    229    341      -49.88    
     73      1    227    341      -49.88    
     74      1    219    342      -49.88    
     75      1    219    336      -49.88    
     76      1    199    329      -49.88    
     77      1    191    332      -0.000    
     78      1    190    332      -0.000    
     79      1    130    310      -0.000    
     80      1    123    305      -0.000    
     81      1    104    289      -0.000    
     82      1     96    287      -510.6    
     83      1     95    284      -510.6    
     84      1     95    280      -510.6    
     85      1     93    276      -510.6    
     86      1     94    275      -510.6    
     87      1     90    277      -510.6    
     88      1     90    273      -510.6    
     89      1     86    271      -510.6    
     90      1     85    270      -510.6    
     91      1     84    265      -510.6    
     92      1     85    265      -510.6    
     93      1     84    264      -510.6    
     94      1     79    263      -510.6    
     95      1     79    263      -510.6    
     96      1     76    262      -510.6    
     97      1     73    257      -510.6    
     98      1     74    255      -510.6    
     99      1     71    255      -510.6    
    100      1     66    253      -510.6    
    101      1     68    252      -510.6    
    102      1     69    250      -510.6    
    103      1     65    248      -510.6    
    104      1     68    248      -510.6    
    105      1     69    247      -510.6    
    106      1     73    247      -510.6    
    107      1     64    246      -510.6    
    108      1     69    245      -510.6    
    109      1     72    245      -510.6    
    110      1     69    241      -510.6    
    111      1     73    238      -510.6    
    112      1     70    238      -510.6    
    113      1     76    263      -510.6    
    114      1     66    232      -620.9    
    115      1     69    229      -620.9    
    116      1     71    228      -620.9    
    117      1     69    227      -620.9    
    118      1     72    219      -620.9    
    119      1     72    218      -620.9    
    120      1     72    218      -620.9    
    121      1     73    217      -620.9    
    122      1     77    219      -620.9    
    123      1     78    219      -620.9    
    124      1     83    213      -620.9    
    125      1     77    213      -620.9    
    126      1     81    211      -620.9    
    127      1     81    210      -620.9    
    128      1     81    210      -620.9    
    129      1     82    208      -620.9    
    130      1     80    205      -620.9    
    131      1     86    202      -620.9    
    132      1     84    200      -620.9    
    133      1     89    200      -620.9    
    134      1     89    199      -620.9    
    135      1     88    199      -620.9    
    136      1     86    199      -620.9    
    137      1     85    199      -620.9    
    138      1     82    197      -620.9    
    139      1     86    197      -620.9    
    140      1     88    198      -620.9    
    141      1     90    192      -620.9    
    142      1     89    191      -620.9    
    143      1     84    192      -620.9    
    144      1     91    189      -620.9    
    145      1     92    185      -620.9    
    146      1     87    183      -620.9    
    147      1     92    182      -620.9    
    148      1     90    182      -620.9    
    149      1     88    179      -620.9    
    150      1     89    176      -620.9    
    151      1     92    172      -620.9    
    152      1     93    164      -620.9    
    153      1     94    162      -620.9    
    154      1    103    156      -620.9    
    155      1    103    156      -620.9    
    156      1     96    154      -620.9    
    157      1     97    153      -620.9    
    158      1    122    139      -620.9    
    159      1     92     77      -620.9    
    160      1     94     77      -620.9    
    161      1     94     73      -620.9    
    162      1     97    152      -620.9    
    163      1    118    337      -666.7    
    164      1    133    319      -2678.    
    165      1    131    320      -3951.    
    166      1    133    321      -2956.    
    167      1    161    329      -2141.    
    168      1    178    330      -551.0    
    169      1    163    330      -1122.    
    170      1    131    320      -2473.    
    171      1    129    315      -3937.    
    172      1    162    329      -1959.    
    173      1    131    311      -826.1    
    174      1    221    340      -1994.    
    175      1    220    340      -1034.    
    176      1    221    340      -667.7    
    177      1    137    322      -2082.    
    178      1    137    321      -1407.    
    179      1    185    329      -2012.    
    180      1    183    329      -1473.    
    181      1    175    329      -585.3    
    182      1     79    243      -1490.    
    183      1     77    245      -2414.    
    184      1    199    329      -1617.    
    185      1    198    330      -2514.    
    186      1    140    328      -972.1    
    187      1    143    327      -863.6    
    188      1    139    327      -1331.    

    188 WELLS

 REUSING NON-PARAMETER DRAINS FROM LAST STRESS PERIOD

   1061 DRAINS

 REUSING SURF FROM LAST STRESS PERIOD

 REUSING EVTR FROM LAST STRESS PERIOD

 REUSING EXDP FROM LAST STRESS PERIOD



                           RECHARGE
 READING ON UNIT   19 WITH FORMAT: (510E15.6)          

 SOLVING FOR HEAD 
                                                   Max.-Head-Change                        Max.-Flux-Residual
  Residual-Control   Outer-Iter.   Inner-Iter.     Column Row Layer    Max.-Head-Change    Column Row Layer    Max.-Flux-Residual            L2-New               L2-Old           Solver-Max-Delh
          0                 1           3           263   79     1       0.2142657220E+02     348  263    1       0.7067412690E+04      0.3226126818E+05      0.3073496533E+02      0.2142657220E+02
          0                 2           2           263   79     1      -0.2087051812E+01     348  263    1      -0.8126123473E+03      0.3329815939E+04      0.3226126818E+05     -0.2087051812E+01
          0                 3           2           263   79     1      -0.1071280853E+00     348  263    1      -0.4106266939E+02      0.1685423830E+03      0.3329815939E+04     -0.1071280853E+00
          0                 4           2           232   92     1       0.5520119287E-02     348  263    1      -0.2053823950E+01      0.8442089111E+01      0.1685423830E+03      0.5520119287E-02

    ------------------------------------------------
       NWT REQUIRED            4 OUTER ITERATIONS 
       AND A TOTAL OF          9 INNER ITERATIONS.
    ------------------------------------------------

 NO OUTPUT CONTROL FOR STRESS PERIOD   80   TIME STEP    1

 WELLS WITH REDUCED PUMPING FOR STRESS PERIOD    80 TIME STEP     1
   LAY   ROW   COL         APPL.Q          ACT.Q        GW-HEAD       CELL-BOT
     1    77   213  -0.620891E+03  -0.234104E+03   0.152994E+03   0.148000E+03
     1    92    77  -0.620891E+03  -0.169477E+03  -0.847197E+02  -0.930000E+02
     1    94    77  -0.620891E+03  -0.129671E+03  -0.953436E+02  -0.102000E+03
     1    94    73  -0.620891E+03  -0.151898E+03  -0.674957E+02  -0.740000E+02


 SOLVING FOR HEAD 
                                                   Max.-Head-Change                        Max.-Flux-Residual
  Residual-Control   Outer-Iter.   Inner-Iter.     Column Row Layer    Max.-Head-Change    Column Row Layer    Max.-Flux-Residual            L2-New               L2-Old           Solver-Max-Delh
          0                 1           3           263   79     1       0.9275672429E+01     393  346    1       0.2988051920E+04      0.1448518003E+05      0.8442089111E+01      0.9275672429E+01
          0                 2           2           263   79     1      -0.8661702770E+00     263   79    1      -0.3033023367E+03      0.1462377205E+04      0.1448518003E+05     -0.8661702770E+00
          0                 3           2           263   79     1      -0.4404105803E-01     263   79    1      -0.1542065153E+02      0.7324177264E+02      0.1462377205E+04     -0.4404105803E-01

    ------------------------------------------------
       NWT REQUIRED            3 OUTER ITERATIONS 
       AND A TOTAL OF          7 INNER ITERATIONS.
    ------------------------------------------------

 NO OUTPUT CONTROL FOR STRESS PERIOD   80   TIME STEP    2

 WELLS WITH REDUCED PUMPING FOR STRESS PERIOD    80 TIME STEP     2
   LAY   ROW   COL         APPL.Q          ACT.Q        GW-HEAD       CELL-BOT
     1    77   213  -0.620891E+03  -0.247190E+03   0.153166E+03   0.148000E+03
     1    92    77  -0.620891E+03  -0.217238E+03  -0.833941E+02  -0.930000E+02
     1    94    77  -0.620891E+03  -0.132421E+03  -0.952635E+02  -0.102000E+03
     1    94    73  -0.620891E+03  -0.155867E+03  -0.673977E+02  -0.740000E+02


 SOLVING FOR HEAD 
                                                   Max.-Head-Change                        Max.-Flux-Residual
  Residual-Control   Outer-Iter.   Inner-Iter.     Column Row Layer    Max.-Head-Change    Column Row Layer    Max.-Flux-Residual            L2-New               L2-Old           Solver-Max-Delh
          0                 1           3           263   79     1       0.4283798557E+01     393  346    1       0.2586082098E+04      0.1078486079E+05      0.7324177264E+02      0.4283798557E+01
          0                 2           2           263   79     1      -0.3940385318E+00     393  346    1      -0.2587820625E+03      0.1094658247E+04      0.1078486079E+05     -0.3940385318E+00
          0                 3           2           263   79     1      -0.1990325303E-01     393  346    1      -0.1294039421E+02      0.5494065332E+02      0.1094658247E+04     -0.1990325303E-01

    ------------------------------------------------
       NWT REQUIRED            3 OUTER ITERATIONS 
       AND A TOTAL OF          7 INNER ITERATIONS.
    ------------------------------------------------

 NO OUTPUT CONTROL FOR STRESS PERIOD   80   TIME STEP    3

 WELLS WITH REDUCED PUMPING FOR STRESS PERIOD    80 TIME STEP     3
   LAY   ROW   COL         APPL.Q          ACT.Q        GW-HEAD       CELL-BOT
     1    77   213  -0.620891E+03  -0.259932E+03   0.153332E+03   0.148000E+03
     1    92    77  -0.620891E+03  -0.255353E+03  -0.823809E+02  -0.930000E+02
     1    94    77  -0.620891E+03  -0.135150E+03  -0.951845E+02  -0.102000E+03
     1    94    73  -0.620891E+03  -0.159800E+03  -0.673012E+02  -0.740000E+02


 SOLVING FOR HEAD 
                                                   Max.-Head-Change                        Max.-Flux-Residual
  Residual-Control   Outer-Iter.   Inner-Iter.     Column Row Layer    Max.-Head-Change    Column Row Layer    Max.-Flux-Residual            L2-New               L2-Old           Solver-Max-Delh
          0                 1           3           263   79     1       0.2135667236E+01     374  316    1       0.2315612175E+04      0.8929640690E+04      0.5494065332E+02      0.2135667236E+01
          0                 2           2           263   79     1      -0.1889892464E+00     374  316    1      -0.2316809257E+03      0.8950210631E+03      0.8929640690E+04     -0.1889892464E+00
          0                 3           2           263   79     1      -0.9497708759E-02     374  316    1      -0.1158493408E+02      0.4477243144E+02      0.8950210631E+03     -0.9497708759E-02

    ------------------------------------------------
       NWT REQUIRED            3 OUTER ITERATIONS 
       AND A TOTAL OF          7 INNER ITERATIONS.
    ------------------------------------------------

 NO OUTPUT CONTROL FOR STRESS PERIOD   80   TIME STEP    4

 WELLS WITH REDUCED PUMPING FOR STRESS PERIOD    80 TIME STEP     4
   LAY   ROW   COL         APPL.Q          ACT.Q        GW-HEAD       CELL-BOT
     1    77   213  -0.620891E+03  -0.272311E+03   0.153493E+03   0.148000E+03
     1    92    77  -0.620891E+03  -0.284922E+03  -0.816095E+02  -0.930000E+02
     1    94    77  -0.620891E+03  -0.137859E+03  -0.951066E+02  -0.102000E+03
     1    94    73  -0.620891E+03  -0.163694E+03  -0.672064E+02  -0.740000E+02


 SOLVING FOR HEAD 
                                                   Max.-Head-Change                        Max.-Flux-Residual
  Residual-Control   Outer-Iter.   Inner-Iter.     Column Row Layer    Max.-Head-Change    Column Row Layer    Max.-Flux-Residual            L2-New               L2-Old           Solver-Max-Delh
          0                 1           3           263   78     1       0.1246360229E+01     374  316    1       0.2079586183E+04      0.7753580820E+04      0.4477243144E+02      0.1246360229E+01
          0                 2           2           263   78     1      -0.1091408063E+00     378  321    1      -0.2080867300E+03      0.7787055623E+03      0.7753580820E+04     -0.1091408063E+00
          0                 3           2           263   78     1      -0.5472598665E-02     378  321    1      -0.1040534467E+02      0.3893495919E+02      0.7787055623E+03     -0.5472598665E-02

    ------------------------------------------------
       NWT REQUIRED            3 OUTER ITERATIONS 
       AND A TOTAL OF          7 INNER ITERATIONS.
    ------------------------------------------------

 NO OUTPUT CONTROL FOR STRESS PERIOD   80   TIME STEP    5

 WELLS WITH REDUCED PUMPING FOR STRESS PERIOD    80 TIME STEP     5
   LAY   ROW   COL         APPL.Q          ACT.Q        GW-HEAD       CELL-BOT
     1    77   213  -0.620891E+03  -0.284318E+03   0.153648E+03   0.148000E+03
     1    92    77  -0.620891E+03  -0.307546E+03  -0.810233E+02  -0.930000E+02
     1    94    77  -0.620891E+03  -0.140545E+03  -0.950299E+02  -0.102000E+03
     1    94    73  -0.620891E+03  -0.167549E+03  -0.671132E+02  -0.740000E+02


 SOLVING FOR HEAD 
                                                   Max.-Head-Change                        Max.-Flux-Residual
  Residual-Control   Outer-Iter.   Inner-Iter.     Column Row Layer    Max.-Head-Change    Column Row Layer    Max.-Flux-Residual            L2-New               L2-Old           Solver-Max-Delh
          0                 1           3           264   78     1       0.1024671641E+01     378  321    1       0.1899406236E+04      0.6916073294E+04      0.3893495919E+02      0.1024671641E+01
          0                 2           2           264   78     1      -0.8997864400E-01     378  321    1      -0.1900769748E+03      0.6920383272E+03      0.6916073294E+04     -0.8997864400E-01

    ------------------------------------------------
       NWT REQUIRED            2 OUTER ITERATIONS 
       AND A TOTAL OF          5 INNER ITERATIONS.
    ------------------------------------------------

 NO OUTPUT CONTROL FOR STRESS PERIOD   80   TIME STEP    6

 WELLS WITH REDUCED PUMPING FOR STRESS PERIOD    80 TIME STEP     6
   LAY   ROW   COL         APPL.Q          ACT.Q        GW-HEAD       CELL-BOT
     1    77   213  -0.620891E+03  -0.296000E+03   0.153798E+03   0.148000E+03
     1    92    77  -0.620891E+03  -0.324827E+03  -0.805760E+02  -0.930000E+02
     1    94    77  -0.620891E+03  -0.143221E+03  -0.949539E+02  -0.102000E+03
     1    94    73  -0.620891E+03  -0.171381E+03  -0.670212E+02  -0.740000E+02


 SOLVING FOR HEAD 
                                                   Max.-Head-Change                        Max.-Flux-Residual
  Residual-Control   Outer-Iter.   Inner-Iter.     Column Row Layer    Max.-Head-Change    Column Row Layer    Max.-Flux-Residual            L2-New               L2-Old           Solver-Max-Delh
          0                 1           3           264   78     1       0.8565893060E+00     378  321    1       0.1738704631E+04      0.6278085199E+04      0.3460603580E+02      0.8565893060E+00
          0                 2           2           264   78     1      -0.7511328503E-01     378  321    1      -0.1740026476E+03      0.6289778614E+03      0.6278085199E+04     -0.7511328503E-01

    ------------------------------------------------
       NWT REQUIRED            2 OUTER ITERATIONS 
       AND A TOTAL OF          5 INNER ITERATIONS.
    ------------------------------------------------

 NO OUTPUT CONTROL FOR STRESS PERIOD   80   TIME STEP    7

 WELLS WITH REDUCED PUMPING FOR STRESS PERIOD    80 TIME STEP     7
   LAY   ROW   COL         APPL.Q          ACT.Q        GW-HEAD       CELL-BOT
     1    77   213  -0.620891E+03  -0.307294E+03   0.153943E+03   0.148000E+03
     1    92    77  -0.620891E+03  -0.337905E+03  -0.802368E+02  -0.930000E+02
     1    94    77  -0.620891E+03  -0.145874E+03  -0.948790E+02  -0.102000E+03
     1    94    73  -0.620891E+03  -0.175170E+03  -0.669307E+02  -0.740000E+02


 SOLVING FOR HEAD 
                                                   Max.-Head-Change                        Max.-Flux-Residual
  Residual-Control   Outer-Iter.   Inner-Iter.     Column Row Layer    Max.-Head-Change    Column Row Layer    Max.-Flux-Residual            L2-New               L2-Old           Solver-Max-Delh
          0                 1           3           343  217     1       0.7522653520E+00     378  321    1       0.1595602768E+04      0.5775572561E+04      0.3145632932E+02      0.7522653520E+00
          0                 2           2           343  217     1      -0.6546764015E-01     378  321    1      -0.1596856179E+03      0.5791617141E+03      0.5775572561E+04     -0.6546764015E-01

    ------------------------------------------------
       NWT REQUIRED            2 OUTER ITERATIONS 
       AND A TOTAL OF          5 INNER ITERATIONS.
    ------------------------------------------------

 NO OUTPUT CONTROL FOR STRESS PERIOD   80   TIME STEP    8

 WELLS WITH REDUCED PUMPING FOR STRESS PERIOD    80 TIME STEP     8
   LAY   ROW   COL         APPL.Q          ACT.Q        GW-HEAD       CELL-BOT
     1    77   213  -0.620891E+03  -0.318199E+03   0.154083E+03   0.148000E+03
     1    92    77  -0.620891E+03  -0.347789E+03  -0.799797E+02  -0.930000E+02
     1    94    77  -0.620891E+03  -0.148503E+03  -0.948052E+02  -0.102000E+03
     1    94    73  -0.620891E+03  -0.178916E+03  -0.668418E+02  -0.740000E+02


 SOLVING FOR HEAD 
                                                   Max.-Head-Change                        Max.-Flux-Residual
  Residual-Control   Outer-Iter.   Inner-Iter.     Column Row Layer    Max.-Head-Change    Column Row Layer    Max.-Flux-Residual            L2-New               L2-Old           Solver-Max-Delh
          0                 1           3           343  217     1       0.7041843944E+00     378  321    1       0.1467779410E+04      0.5369830720E+04      0.2900412917E+02      0.7041843944E+00
          0                 2           2           343  217     1      -0.6126229270E-01     378  321    1      -0.1468950706E+03      0.5374076659E+03      0.5369830720E+04     -0.6126229270E-01

    ------------------------------------------------
       NWT REQUIRED            2 OUTER ITERATIONS 
       AND A TOTAL OF          5 INNER ITERATIONS.
    ------------------------------------------------

 NO OUTPUT CONTROL FOR STRESS PERIOD   80   TIME STEP    9

 WELLS WITH REDUCED PUMPING FOR STRESS PERIOD    80 TIME STEP     9
   LAY   ROW   COL         APPL.Q          ACT.Q        GW-HEAD       CELL-BOT
     1    77   213  -0.620891E+03  -0.328718E+03   0.154219E+03   0.148000E+03
     1    92    77  -0.620891E+03  -0.355252E+03  -0.797851E+02  -0.930000E+02
     1    94    77  -0.620891E+03  -0.151107E+03  -0.947325E+02  -0.102000E+03
     1    94    73  -0.620891E+03  -0.182617E+03  -0.667544E+02  -0.740000E+02


 SOLVING FOR HEAD 
                                                   Max.-Head-Change                        Max.-Flux-Residual
  Residual-Control   Outer-Iter.   Inner-Iter.     Column Row Layer    Max.-Head-Change    Column Row Layer    Max.-Flux-Residual            L2-New               L2-Old           Solver-Max-Delh
          0                 1           3           343  217     1       0.6537790597E+00     378  321    1       0.1353283388E+04      0.5034099292E+04      0.2687184875E+02      0.6537790597E+00
          0                 2           2           343  217     1      -0.5685097317E-01     378  321    1      -0.1354367096E+03      0.5035223826E+03      0.5034099292E+04     -0.5685097317E-01

    ------------------------------------------------
       NWT REQUIRED            2 OUTER ITERATIONS 
       AND A TOTAL OF          5 INNER ITERATIONS.
    ------------------------------------------------

 OUTPUT CONTROL FOR STRESS PERIOD   80   TIME STEP   10
    SAVE HEAD FOR ALL LAYERS

 WELLS WITH REDUCED PUMPING FOR STRESS PERIOD    80 TIME STEP    10
   LAY   ROW   COL         APPL.Q          ACT.Q        GW-HEAD       CELL-BOT
     1    77   213  -0.620891E+03  -0.338855E+03   0.154349E+03   0.148000E+03
     1    92    77  -0.620891E+03  -0.360882E+03  -0.796378E+02  -0.930000E+02
     1    94    77  -0.620891E+03  -0.153686E+03  -0.946609E+02  -0.102000E+03
     1    94    73  -0.620891E+03  -0.186272E+03  -0.666686E+02  -0.740000E+02


 HEAD WILL BE SAVED ON UNIT   51 AT END OF TIME STEP   10, STRESS PERIOD   80
1
  VOLUMETRIC BUDGET FOR ENTIRE MODEL AT END OF TIME STEP   10, STRESS PERIOD  80
  ------------------------------------------------------------------------------

     CUMULATIVE VOLUMES      L**3       RATES FOR THIS TIME STEP      L**3/T
     ------------------                 ------------------------

           IN:                                      IN:
           ---                                      ---
             STORAGE =   765257856.0000               STORAGE =      145489.6406
       CONSTANT HEAD =   124332304.0000         CONSTANT HEAD =       52169.5664
               WELLS =           0.0000                 WELLS =           0.0000
              DRAINS =           0.0000                DRAINS =           0.0000
                  ET =           0.0000                    ET =           0.0000
            RECHARGE =   430777728.0000              RECHARGE =      104500.6562

            TOTAL IN =  1320367872.0000              TOTAL IN =      302159.8750

          OUT:                                     OUT:
          ----                                     ----
             STORAGE =   228759648.0000               STORAGE =       91994.4219
       CONSTANT HEAD =           0.0000         CONSTANT HEAD =           0.0000
               WELLS =   722142080.0000                 WELLS =       98547.8984
              DRAINS =   261507424.0000                DRAINS =       80804.1875
                  ET =   105758096.0000                    ET =       30550.7910
            RECHARGE =      525047.1875              RECHARGE =           0.0000

           TOTAL OUT =  1318692352.0000             TOTAL OUT =      301897.2812

            IN - OUT =     1675520.0000              IN - OUT =         262.5938

 PERCENT DISCREPANCY =           0.13     PERCENT DISCREPANCY =           0.09






         TIME SUMMARY AT END OF TIME STEP   10 IN STRESS PERIOD   80
                    SECONDS     MINUTES      HOURS       DAYS        YEARS
                    -----------------------------------------------------------
   TIME STEP LENGTH 2.62656E+05  4377.6      72.960      3.0400     8.32307E-03
 STRESS PERIOD TIME 2.62656E+06  43776.      729.60      30.400     8.32307E-02
         TOTAL TIME 2.10126E+08 3.50210E+06  58368.      2432.0      6.6585    
1
1
                            STRESS PERIOD NO.   81, LENGTH =   30.40000    
                            -----------------------------------------------

                              NUMBER OF TIME STEPS =    10

                               MULTIPLIER FOR DELT =     1.000

                            INITIAL TIME STEP SIZE =   3.040000    

 WELL NO.  LAYER   ROW   COL   STRESS RATE         
 --------------------------------------------------
      1      1     69    225      -6912.    
      2      1     71    224       0.000    
      3      1     74    220       0.000    
      4      1     73    220       0.000    
      5      1     71    223       0.000    
      6      1     71    223       0.000    
      7      1     72    223       0.000    
      8      1     92    173       0.000    
      9      1     94    174       0.000    
     10      1     93    175       0.000    
     11      1    203    328       0.000    
     12      1    438    460      -574.1    
     13      1    436    461      -574.1    
     14      1    410    454      -574.1    
     15      1    433    460      -574.1    
     16      1    431    462      -574.1    
     17      1    417    459      -574.1    
     18      1    418    458      -574.1    
     19      1    414    455      -574.1    
     20      1    443    464      -574.1    
     21      1    379    425      -574.1    
     22      1    362    405      -574.1    
     23      1    361    405      -574.1    
     24      1    362    406      -574.1    
     25      1    363    408      -574.1    
     26      1    364    410      -574.1    
     27      1    369    418      -574.1    
     28      1    367    417      -574.1    
     29      1    365    415      -574.1    
     30      1    402    447      -574.1    
     31      1    400    446      -574.1    
     32      1    392    444      -574.1    
     33      1    391    441      -574.1    
     34      1    403    448      -574.1    
     35      1    405    447      -574.1    
     36      1    362    410      -574.1    
     37      1    362    411      -574.1    
     38      1    363    412      -574.1    
     39      1    375    421      -574.1    
     40      1    383    430      -574.1    
     41      1    397    445      -574.1    
     42      1    360    403      -574.1    
     43      1    350    401      -574.1    
     44      1    346    393      -662.8    
     45      1    333    387      -662.8    
     46      1    328    384      -662.8    
     47      1    326    383      -662.8    
     48      1    323    378      -662.8    
     49      1    321    378      -662.8    
     50      1    322    376      -662.8    
     51      1    316    374      -662.8    
     52      1    311    371      -662.8    
     53      1    307    369      -662.8    
     54      1    305    368      -662.8    
     55      1    303    368      -662.8    
     56      1    300    369      -662.8    
     57      1    293    364      -662.8    
     58      1    292    362      -662.8    
     59      1    278    350      -662.8    
     60      1    274    351      -662.8    
     61      1    273    350      -662.8    
     62      1    271    350      -662.8    
     63      1    267    348      -662.8    
     64      1    263    348      -662.8    
     65      1    263    348      -662.8    
     66      1    248    347      -662.8    
     67      1    243    342      -662.8    
     68      1    242    339      -662.8    
     69      1    238    341      -662.8    
     70      1    233    340      -662.8    
     71      1    232    340      -662.8    
     72      1    229    341      -662.8    
     73      1    227    341      -662.8    
     74      1    219    342      -662.8    
     75      1    219    336      -662.8    
     76      1    199    329      -662.8    
     77      1    191    332      -940.4    
     78      1    190    332      -940.4    
     79      1    130    310      -940.4    
     80      1    123    305      -940.4    
     81      1    104    289      -940.4    
     82      1     96    287      -1045.    
     83      1     95    284      -1045.    
     84      1     95    280      -1045.    
     85      1     93    276      -1045.    
     86      1     94    275      -1045.    
     87      1     90    277      -1045.    
     88      1     90    273      -1045.    
     89      1     86    271      -1045.    
     90      1     85    270      -1045.    
     91      1     84    265      -1045.    
     92      1     85    265      -1045.    
     93      1     84    264      -1045.    
     94      1     79    263      -1045.    
     95      1     79    263      -1045.    
     96      1     76    262      -1045.    
     97      1     73    257      -1045.    
     98      1     74    255      -1045.    
     99      1     71    255      -1045.    
    100      1     66    253      -1045.    
    101      1     68    252      -1045.    
    102      1     69    250      -1045.    
    103      1     65    248      -1045.    
    104      1     68    248      -1045.    
    105      1     69    247      -1045.    
    106      1     73    247      -1045.    
    107      1     64    246      -1045.    
    108      1     69    245      -1045.    
    109      1     72    245      -1045.    
    110      1     69    241      -1045.    
    111      1     73    238      -1045.    
    112      1     70    238      -1045.    
    113      1     76    263      -1045.    
    114      1     66    232      -728.1    
    115      1     69    229      -728.1    
    116      1     71    228      -728.1    
    117      1     69    227      -728.1    
    118      1     72    219      -728.1    
    119      1     72    218      -728.1    
    120      1     72    218      -728.1    
    121      1     73    217      -728.1    
    122      1     77    219      -728.1    
    123      1     78    219      -728.1    
    124      1     83    213      -728.1    
    125      1     77    213      -728.1    
    126      1     81    211      -728.1    
    127      1     81    210      -728.1    
    128      1     81    210      -728.1    
    129      1     82    208      -728.1    
    130      1     80    205      -728.1    
    131      1     86    202      -728.1    
    132      1     84    200      -728.1    
    133      1     89    200      -728.1    
    134      1     89    199      -728.1    
    135      1     88    199      -728.1    
    136      1     86    199      -728.1    
    137      1     85    199      -728.1    
    138      1     82    197      -728.1    
    139      1     86    197      -728.1    
    140      1     88    198      -728.1    
    141      1     90    192      -728.1    
    142      1     89    191      -728.1    
    143      1     84    192      -728.1    
    144      1     91    189      -728.1    
    145      1     92    185      -728.1    
    146      1     87    183      -728.1    
    147      1     92    182      -728.1    
    148      1     90    182      -728.1    
    149      1     88    179      -728.1    
    150      1     89    176      -728.1    
    151      1     92    172      -728.1    
    152      1     93    164      -728.1    
    153      1     94    162      -728.1    
    154      1    103    156      -728.1    
    155      1    103    156      -728.1    
    156      1     96    154      -728.1    
    157      1     97    153      -728.1    
    158      1    122    139      -728.1    
    159      1     92     77      -728.1    
    160      1     94     77      -728.1    
    161      1     94     73      -728.1    
    162      1     97    152      -728.1    
    163      1    118    337      -666.7    
    164      1    133    319      -2678.    
    165      1    131    320      -3951.    
    166      1    133    321      -2956.    
    167      1    161    329      -2141.    
    168      1    178    330      -551.0    
    169      1    163    330      -1122.    
    170      1    131    320      -2473.    
    171      1    129    315      -3937.    
    172      1    162    329      -1959.    
    173      1    131    311      -826.1    
    174      1    221    340      -1994.    
    175      1    220    340      -1034.    
    176      1    221    340      -667.7    
    177      1    137    322      -2082.    
    178      1    137    321      -1407.    
    179      1    185    329      -2012.    
    180      1    183    329      -1473.    
    181      1    175    329      -585.3    
    182      1     79    243      -1490.    
    183      1     77    245      -2414.    
    184      1    199    329      -1617.    
    185      1    198    330      -2514.    
    186      1    140    328      -972.1    
    187      1    143    327      -863.6    
    188      1    139    327      -1331.    

    188 WELLS

 REUSING NON-PARAMETER DRAINS FROM LAST STRESS PERIOD

   1061 DRAINS

 REUSING SURF FROM LAST STRESS PERIOD

 REUSING EVTR FROM LAST STRESS PERIOD

 REUSING EXDP FROM LAST STRESS PERIOD



                           RECHARGE
 READING ON UNIT   19 WITH FORMAT: (510E15.6)          

 SOLVING FOR HEAD 
                                                   Max.-Head-Change                        Max.-Flux-Residual
  Residual-Control   Outer-Iter.   Inner-Iter.     Column Row Layer    Max.-Head-Change    Column Row Layer    Max.-Flux-Residual            L2-New               L2-Old           Solver-Max-Delh
          0                 1           3           263   79     1      -0.3122448124E+01     348  263    1      -0.1162846766E+04      0.6451226807E+04      0.2517718443E+02     -0.3122448124E+01
          0                 2           2           263   79     1       0.2648976578E+00     348  263    1       0.1156466849E+03      0.6460598156E+03      0.6451226807E+04      0.2648976578E+00
          0                 3           2           263   79     1       0.1322961449E-01     348  263    1       0.5777621120E+01      0.3228331192E+02      0.6460598156E+03      0.1322961449E-01

    ------------------------------------------------
       NWT REQUIRED            3 OUTER ITERATIONS 
       AND A TOTAL OF          7 INNER ITERATIONS.
    ------------------------------------------------

 NO OUTPUT CONTROL FOR STRESS PERIOD   81   TIME STEP    1

 WELLS WITH REDUCED PUMPING FOR STRESS PERIOD    81 TIME STEP     1
   LAY   ROW   COL         APPL.Q          ACT.Q        GW-HEAD       CELL-BOT
     1    77   213  -0.728135E+03  -0.406829E+03   0.154453E+03   0.148000E+03
     1    92    77  -0.728135E+03  -0.412919E+03  -0.798673E+02  -0.930000E+02
     1    94    77  -0.728135E+03  -0.182807E+03  -0.946002E+02  -0.102000E+03
     1    94    73  -0.728135E+03  -0.222072E+03  -0.665963E+02  -0.740000E+02


 SOLVING FOR HEAD 
                                                   Max.-Head-Change                        Max.-Flux-Residual
  Residual-Control   Outer-Iter.   Inner-Iter.     Column Row Layer    Max.-Head-Change    Column Row Layer    Max.-Flux-Residual            L2-New               L2-Old           Solver-Max-Delh
          0                 1           3           263   79     1      -0.1268004753E+01     139  122    1       0.6799959044E+03      0.4073141250E+04      0.3228331192E+02     -0.1268004753E+01
          0                 2           2           263   79     1       0.1090600798E+00     139  122    1      -0.6801016806E+02      0.4066830433E+03      0.4073141250E+04      0.1090600798E+00
          0                 3           2           263   79     1       0.5447617238E-02     139  122    1      -0.3400586719E+01      0.2033418848E+02      0.4066830433E+03      0.5447617238E-02

    ------------------------------------------------
       NWT REQUIRED            3 OUTER ITERATIONS 
       AND A TOTAL OF          7 INNER ITERATIONS.
    ------------------------------------------------

 NO OUTPUT CONTROL FOR STRESS PERIOD   81   TIME STEP    2

 WELLS WITH REDUCED PUMPING FOR STRESS PERIOD    81 TIME STEP     2
   LAY   ROW   COL         APPL.Q          ACT.Q        GW-HEAD       CELL-BOT
     1    77   213  -0.728135E+03  -0.415876E+03   0.154553E+03   0.148000E+03
     1    92    77  -0.728135E+03  -0.405270E+03  -0.800373E+02  -0.930000E+02
     1    94    77  -0.728135E+03  -0.185348E+03  -0.945406E+02  -0.102000E+03
     1    94    73  -0.728135E+03  -0.225639E+03  -0.665255E+02  -0.740000E+02


 SOLVING FOR HEAD 
                                                   Max.-Head-Change                        Max.-Flux-Residual
  Residual-Control   Outer-Iter.   Inner-Iter.     Column Row Layer    Max.-Head-Change    Column Row Layer    Max.-Flux-Residual            L2-New               L2-Old           Solver-Max-Delh
          0                 1           3           263   79     1      -0.5219208153E+00     139  122    1       0.6601183332E+03      0.3707926500E+04      0.2033418848E+02     -0.5219208153E+00
          0                 2           2           263   79     1       0.4504056966E-01     139  122    1      -0.6602197116E+02      0.3708462273E+03      0.3707926500E+04      0.4504056966E-01

    ------------------------------------------------
       NWT REQUIRED            2 OUTER ITERATIONS 
       AND A TOTAL OF          5 INNER ITERATIONS.
    ------------------------------------------------

 NO OUTPUT CONTROL FOR STRESS PERIOD   81   TIME STEP    3

 WELLS WITH REDUCED PUMPING FOR STRESS PERIOD    81 TIME STEP     3
   LAY   ROW   COL         APPL.Q          ACT.Q        GW-HEAD       CELL-BOT
     1    77   213  -0.728135E+03  -0.424582E+03   0.154649E+03   0.148000E+03
     1    92    77  -0.728135E+03  -0.399558E+03  -0.801640E+02  -0.930000E+02
     1    94    77  -0.728135E+03  -0.187868E+03  -0.944817E+02  -0.102000E+03
     1    94    73  -0.728135E+03  -0.229163E+03  -0.664558E+02  -0.740000E+02


 SOLVING FOR HEAD 
                                                   Max.-Head-Change                        Max.-Flux-Residual
  Residual-Control   Outer-Iter.   Inner-Iter.     Column Row Layer    Max.-Head-Change    Column Row Layer    Max.-Flux-Residual            L2-New               L2-Old           Solver-Max-Delh
          0                 1           3           343  217     1       0.2996003709E+00     197   82    1       0.6452224351E+03      0.3534320387E+04      0.3708462273E+03      0.2996003709E+00
          0                 2           2           343  217     1      -0.2596338401E-01     197   82    1      -0.6453067227E+02      0.3534672023E+03      0.3534320387E+04     -0.2596338401E-01

    ------------------------------------------------
       NWT REQUIRED            2 OUTER ITERATIONS 
       AND A TOTAL OF          5 INNER ITERATIONS.
    ------------------------------------------------

 NO OUTPUT CONTROL FOR STRESS PERIOD   81   TIME STEP    4

 WELLS WITH REDUCED PUMPING FOR STRESS PERIOD    81 TIME STEP     4
   LAY   ROW   COL         APPL.Q          ACT.Q        GW-HEAD       CELL-BOT
     1    77   213  -0.728135E+03  -0.432914E+03   0.154742E+03   0.148000E+03
     1    92    77  -0.728135E+03  -0.395311E+03  -0.802580E+02  -0.930000E+02
     1    94    77  -0.728135E+03  -0.190352E+03  -0.944238E+02  -0.102000E+03
     1    94    73  -0.728135E+03  -0.232627E+03  -0.663876E+02  -0.740000E+02


 SOLVING FOR HEAD 
                                                   Max.-Head-Change                        Max.-Flux-Residual
  Residual-Control   Outer-Iter.   Inner-Iter.     Column Row Layer    Max.-Head-Change    Column Row Layer    Max.-Flux-Residual            L2-New               L2-Old           Solver-Max-Delh
          0                 1           3           197   82     1       0.2606640847E+00     197   82    1       0.6350166504E+03      0.3417312683E+04      0.3534672023E+03      0.2606640847E+00
          0                 2           2           197   82     1      -0.2251428396E-01     197   82    1      -0.6350988272E+02      0.3417372180E+03      0.3417312683E+04     -0.2251428396E-01

    ------------------------------------------------
       NWT REQUIRED            2 OUTER ITERATIONS 
       AND A TOTAL OF          5 INNER ITERATIONS.
    ------------------------------------------------

 NO OUTPUT CONTROL FOR STRESS PERIOD   81   TIME STEP    5

 WELLS WITH REDUCED PUMPING FOR STRESS PERIOD    81 TIME STEP     5
   LAY   ROW   COL         APPL.Q          ACT.Q        GW-HEAD       CELL-BOT
     1    77   213  -0.728135E+03  -0.440887E+03   0.154831E+03   0.148000E+03
     1    92    77  -0.728135E+03  -0.392143E+03  -0.803282E+02  -0.930000E+02
     1    94    77  -0.728135E+03  -0.192803E+03  -0.943670E+02  -0.102000E+03
     1    94    73  -0.728135E+03  -0.236032E+03  -0.663208E+02  -0.740000E+02


 SOLVING FOR HEAD 
                                                   Max.-Head-Change                        Max.-Flux-Residual
  Residual-Control   Outer-Iter.   Inner-Iter.     Column Row Layer    Max.-Head-Change    Column Row Layer    Max.-Flux-Residual            L2-New               L2-Old           Solver-Max-Delh
          0                 1           3           197   82     1       0.2565529171E+00     197   82    1       0.6249898279E+03      0.3324953327E+04      0.3417372180E+03      0.2565529171E+00
          0                 2           2           197   82     1      -0.2215916947E-01     197   82    1      -0.6250699781E+02      0.3325321962E+03      0.3324953327E+04     -0.2215916947E-01

    ------------------------------------------------
       NWT REQUIRED            2 OUTER ITERATIONS 
       AND A TOTAL OF          5 INNER ITERATIONS.
    ------------------------------------------------

 NO OUTPUT CONTROL FOR STRESS PERIOD   81   TIME STEP    6

 WELLS WITH REDUCED PUMPING FOR STRESS PERIOD    81 TIME STEP     6
   LAY   ROW   COL         APPL.Q          ACT.Q        GW-HEAD       CELL-BOT
     1    77   213  -0.728135E+03  -0.448514E+03   0.154916E+03   0.148000E+03
     1    92    77  -0.728135E+03  -0.389768E+03  -0.803807E+02  -0.930000E+02
     1    94    77  -0.728135E+03  -0.195219E+03  -0.943111E+02  -0.102000E+03
     1    94    73  -0.728135E+03  -0.239377E+03  -0.662553E+02  -0.740000E+02


 SOLVING FOR HEAD 
                                                   Max.-Head-Change                        Max.-Flux-Residual
  Residual-Control   Outer-Iter.   Inner-Iter.     Column Row Layer    Max.-Head-Change    Column Row Layer    Max.-Flux-Residual            L2-New               L2-Old           Solver-Max-Delh
          0                 1           3           197   82     1       0.2525144832E+00     197   82    1       0.6151398205E+03      0.3246557551E+04      0.3325321962E+03      0.2525144832E+00
          0                 2           2           197   82     1      -0.2181033844E-01     197   82    1      -0.6152180087E+02      0.3246628903E+03      0.3246557551E+04     -0.2181033844E-01

    ------------------------------------------------
       NWT REQUIRED            2 OUTER ITERATIONS 
       AND A TOTAL OF          5 INNER ITERATIONS.
    ------------------------------------------------

 NO OUTPUT CONTROL FOR STRESS PERIOD   81   TIME STEP    7

 WELLS WITH REDUCED PUMPING FOR STRESS PERIOD    81 TIME STEP     7
   LAY   ROW   COL         APPL.Q          ACT.Q        GW-HEAD       CELL-BOT
     1    77   213  -0.728135E+03  -0.455808E+03   0.154999E+03   0.148000E+03
     1    92    77  -0.728135E+03  -0.387976E+03  -0.804203E+02  -0.930000E+02
     1    94    77  -0.728135E+03  -0.197601E+03  -0.942563E+02  -0.102000E+03
     1    94    73  -0.728135E+03  -0.242663E+03  -0.661912E+02  -0.740000E+02


 SOLVING FOR HEAD 
                                                   Max.-Head-Change                        Max.-Flux-Residual
  Residual-Control   Outer-Iter.   Inner-Iter.     Column Row Layer    Max.-Head-Change    Column Row Layer    Max.-Flux-Residual            L2-New               L2-Old           Solver-Max-Delh
          0                 1           3           197   82     1       0.2485475370E+00     197   82    1       0.6054639241E+03      0.3177519169E+04      0.3246628903E+03      0.2485475370E+00
          0                 2           2           197   82     1      -0.2146768301E-01     197   82    1      -0.6055402061E+02      0.3177747856E+03      0.3177519169E+04     -0.2146768301E-01

    ------------------------------------------------
       NWT REQUIRED            2 OUTER ITERATIONS 
       AND A TOTAL OF          5 INNER ITERATIONS.
    ------------------------------------------------

 NO OUTPUT CONTROL FOR STRESS PERIOD   81   TIME STEP    8

 WELLS WITH REDUCED PUMPING FOR STRESS PERIOD    81 TIME STEP     8
   LAY   ROW   COL         APPL.Q          ACT.Q        GW-HEAD       CELL-BOT
     1    77   213  -0.728135E+03  -0.462785E+03   0.155077E+03   0.148000E+03
     1    92    77  -0.728135E+03  -0.386612E+03  -0.804505E+02  -0.930000E+02
     1    94    77  -0.728135E+03  -0.199948E+03  -0.942024E+02  -0.102000E+03
     1    94    73  -0.728135E+03  -0.245890E+03  -0.661285E+02  -0.740000E+02


 SOLVING FOR HEAD 
                                                   Max.-Head-Change                        Max.-Flux-Residual
  Residual-Control   Outer-Iter.   Inner-Iter.     Column Row Layer    Max.-Head-Change    Column Row Layer    Max.-Flux-Residual            L2-New               L2-Old           Solver-Max-Delh
          0                 1           3           197   82     1       0.2446507987E+00     197   82    1       0.5959591715E+03      0.3115522411E+04      0.3177747856E+03      0.2446507987E+00
          0                 2           2            53   88     1      -0.4097043107E-01     197   82    1      -0.5960335982E+02      0.3124549676E+03      0.3115522411E+04     -0.4097043107E-01

    ------------------------------------------------
       NWT REQUIRED            2 OUTER ITERATIONS 
       AND A TOTAL OF          5 INNER ITERATIONS.
    ------------------------------------------------

 NO OUTPUT CONTROL FOR STRESS PERIOD   81   TIME STEP    9

 WELLS WITH REDUCED PUMPING FOR STRESS PERIOD    81 TIME STEP     9
   LAY   ROW   COL         APPL.Q          ACT.Q        GW-HEAD       CELL-BOT
     1    77   213  -0.728135E+03  -0.469456E+03   0.155153E+03   0.148000E+03
     1    92    77  -0.728135E+03  -0.385562E+03  -0.804737E+02  -0.930000E+02
     1    94    77  -0.728135E+03  -0.202261E+03  -0.941494E+02  -0.102000E+03
     1    94    73  -0.728135E+03  -0.249058E+03  -0.660670E+02  -0.740000E+02


 SOLVING FOR HEAD 
                                                   Max.-Head-Change                        Max.-Flux-Residual
  Residual-Control   Outer-Iter.   Inner-Iter.     Column Row Layer    Max.-Head-Change    Column Row Layer    Max.-Flux-Residual            L2-New               L2-Old           Solver-Max-Delh
          0                 1           3           197   82     1       0.2408229471E+00     197   82    1       0.5866224197E+03      0.3059135099E+04      0.3124549676E+03      0.2408229471E+00
          0                 2           2           197   82     1      -0.2080045270E-01     197   82    1      -0.5866950394E+02      0.3059159032E+03      0.3059135099E+04     -0.2080045270E-01

    ------------------------------------------------
       NWT REQUIRED            2 OUTER ITERATIONS 
       AND A TOTAL OF          5 INNER ITERATIONS.
    ------------------------------------------------

 OUTPUT CONTROL FOR STRESS PERIOD   81   TIME STEP   10
    SAVE HEAD FOR ALL LAYERS

 WELLS WITH REDUCED PUMPING FOR STRESS PERIOD    81 TIME STEP    10
   LAY   ROW   COL         APPL.Q          ACT.Q        GW-HEAD       CELL-BOT
     1    77   213  -0.728135E+03  -0.475834E+03   0.155226E+03   0.148000E+03
     1    92    77  -0.728135E+03  -0.384744E+03  -0.804918E+02  -0.930000E+02
     1    94    77  -0.728135E+03  -0.204540E+03  -0.940975E+02  -0.102000E+03
     1    94    73  -0.728135E+03  -0.252168E+03  -0.660069E+02  -0.740000E+02


 HEAD WILL BE SAVED ON UNIT   51 AT END OF TIME STEP   10, STRESS PERIOD   81
1
  VOLUMETRIC BUDGET FOR ENTIRE MODEL AT END OF TIME STEP   10, STRESS PERIOD  81
  ------------------------------------------------------------------------------

     CUMULATIVE VOLUMES      L**3       RATES FOR THIS TIME STEP      L**3/T
     ------------------                 ------------------------

           IN:                                      IN:
           ---                                      ---
             STORAGE =   769556416.0000               STORAGE =      134222.4531
       CONSTANT HEAD =   125918304.0000         CONSTANT HEAD =       52171.3672
               WELLS =           0.0000                 WELLS =           0.0000
              DRAINS =           0.0000                DRAINS =           0.0000
                  ET =           0.0000                    ET =           0.0000
            RECHARGE =   434425728.0000              RECHARGE =      120000.1719

            TOTAL IN =  1329900416.0000              TOTAL IN =      306394.0000

          OUT:                                     OUT:
          ----                                     ----
             STORAGE =   230246928.0000               STORAGE =       40891.7148
       CONSTANT HEAD =           0.0000         CONSTANT HEAD =           0.0000
               WELLS =   726754560.0000                 WELLS =      151774.2344
              DRAINS =   263987072.0000                DRAINS =       82027.2500
                  ET =   106699864.0000                    ET =       31237.2344
            RECHARGE =      525047.1875              RECHARGE =           0.0000

           TOTAL OUT =  1328213504.0000             TOTAL OUT =      305930.4375

            IN - OUT =     1686912.0000              IN - OUT =         463.5625

 PERCENT DISCREPANCY =           0.13     PERCENT DISCREPANCY =           0.15






         TIME SUMMARY AT END OF TIME STEP   10 IN STRESS PERIOD   81
                    SECONDS     MINUTES      HOURS       DAYS        YEARS
                    -----------------------------------------------------------
   TIME STEP LENGTH 2.62656E+05  4377.6      72.960      3.0400     8.32307E-03
 STRESS PERIOD TIME 2.62656E+06  43776.      729.60      30.400     8.32307E-02
         TOTAL TIME 2.12753E+08 3.54588E+06  59098.      2462.4      6.7417    
1
1
                            STRESS PERIOD NO.   82, LENGTH =   30.40000    
                            -----------------------------------------------

                              NUMBER OF TIME STEPS =    10

                               MULTIPLIER FOR DELT =     1.000

                            INITIAL TIME STEP SIZE =   3.040000    

 WELL NO.  LAYER   ROW   COL   STRESS RATE         
 --------------------------------------------------
      1      1     69    225      -6998.    
      2      1     71    224       0.000    
      3      1     74    220       0.000    
      4      1     73    220       0.000    
      5      1     71    223       0.000    
      6      1     71    223       0.000    
      7      1     72    223       0.000    
      8      1     92    173       0.000    
      9      1     94    174       0.000    
     10      1     93    175       0.000    
     11      1    203    328       0.000    
     12      1    438    460      -2978.    
     13      1    436    461      -2978.    
     14      1    410    454      -2978.    
     15      1    433    460      -2978.    
     16      1    431    462      -2978.    
     17      1    417    459      -2978.    
     18      1    418    458      -2978.    
     19      1    414    455      -2978.    
     20      1    443    464      -2978.    
     21      1    379    425      -2978.    
     22      1    362    405      -2978.    
     23      1    361    405      -2978.    
     24      1    362    406      -2978.    
     25      1    363    408      -2978.    
     26      1    364    410      -2978.    
     27      1    369    418      -2978.    
     28      1    367    417      -2978.    
     29      1    365    415      -2978.    
     30      1    402    447      -2978.    
     31      1    400    446      -2978.    
     32      1    392    444      -2978.    
     33      1    391    441      -2978.    
     34      1    403    448      -2978.    
     35      1    405    447      -2978.    
     36      1    362    410      -2978.    
     37      1    362    411      -2978.    
     38      1    363    412      -2978.    
     39      1    375    421      -2978.    
     40      1    383    430      -2978.    
     41      1    397    445      -2978.    
     42      1    360    403      -2978.    
     43      1    350    401      -2978.    
     44      1    346    393      -4077.    
     45      1    333    387      -4077.    
     46      1    328    384      -4077.    
     47      1    326    383      -4077.    
     48      1    323    378      -4077.    
     49      1    321    378      -4077.    
     50      1    322    376      -4077.    
     51      1    316    374      -4077.    
     52      1    311    371      -4077.    
     53      1    307    369      -4077.    
     54      1    305    368      -4077.    
     55      1    303    368      -4077.    
     56      1    300    369      -4077.    
     57      1    293    364      -4077.    
     58      1    292    362      -4077.    
     59      1    278    350      -4077.    
     60      1    274    351      -4077.    
     61      1    273    350      -4077.    
     62      1    271    350      -4077.    
     63      1    267    348      -4077.    
     64      1    263    348      -4077.    
     65      1    263    348      -4077.    
     66      1    248    347      -4077.    
     67      1    243    342      -4077.    
     68      1    242    339      -4077.    
     69      1    238    341      -4077.    
     70      1    233    340      -4077.    
     71      1    232    340      -4077.    
     72      1    229    341      -4077.    
     73      1    227    341      -4077.    
     74      1    219    342      -4077.    
     75      1    219    336      -4077.    
     76      1    199    329      -4077.    
     77      1    191    332      -5038.    
     78      1    190    332      -5038.    
     79      1    130    310      -5038.    
     80      1    123    305      -5038.    
     81      1    104    289      -5038.    
     82      1     96    287      -4290.    
     83      1     95    284      -4290.    
     84      1     95    280      -4290.    
     85      1     93    276      -4290.    
     86      1     94    275      -4290.    
     87      1     90    277      -4290.    
     88      1     90    273      -4290.    
     89      1     86    271      -4290.    
     90      1     85    270      -4290.    
     91      1     84    265      -4290.    
     92      1     85    265      -4290.    
     93      1     84    264      -4290.    
     94      1     79    263      -4290.    
     95      1     79    263      -4290.    
     96      1     76    262      -4290.    
     97      1     73    257      -4290.    
     98      1     74    255      -4290.    
     99      1     71    255      -4290.    
    100      1     66    253      -4290.    
    101      1     68    252      -4290.    
    102      1     69    250      -4290.    
    103      1     65    248      -4290.    
    104      1     68    248      -4290.    
    105      1     69    247      -4290.    
    106      1     73    247      -4290.    
    107      1     64    246      -4290.    
    108      1     69    245      -4290.    
    109      1     72    245      -4290.    
    110      1     69    241      -4290.    
    111      1     73    238      -4290.    
    112      1     70    238      -4290.    
    113      1     76    263      -4290.    
    114      1     66    232      -2310.    
    115      1     69    229      -2310.    
    116      1     71    228      -2310.    
    117      1     69    227      -2310.    
    118      1     72    219      -2310.    
    119      1     72    218      -2310.    
    120      1     72    218      -2310.    
    121      1     73    217      -2310.    
    122      1     77    219      -2310.    
    123      1     78    219      -2310.    
    124      1     83    213      -2310.    
    125      1     77    213      -2310.    
    126      1     81    211      -2310.    
    127      1     81    210      -2310.    
    128      1     81    210      -2310.    
    129      1     82    208      -2310.    
    130      1     80    205      -2310.    
    131      1     86    202      -2310.    
    132      1     84    200      -2310.    
    133      1     89    200      -2310.    
    134      1     89    199      -2310.    
    135      1     88    199      -2310.    
    136      1     86    199      -2310.    
    137      1     85    199      -2310.    
    138      1     82    197      -2310.    
    139      1     86    197      -2310.    
    140      1     88    198      -2310.    
    141      1     90    192      -2310.    
    142      1     89    191      -2310.    
    143      1     84    192      -2310.    
    144      1     91    189      -2310.    
    145      1     92    185      -2310.    
    146      1     87    183      -2310.    
    147      1     92    182      -2310.    
    148      1     90    182      -2310.    
    149      1     88    179      -2310.    
    150      1     89    176      -2310.    
    151      1     92    172      -2310.    
    152      1     93    164      -2310.    
    153      1     94    162      -2310.    
    154      1    103    156      -2310.    
    155      1    103    156      -2310.    
    156      1     96    154      -2310.    
    157      1     97    153      -2310.    
    158      1    122    139      -2310.    
    159      1     92     77      -2310.    
    160      1     94     77      -2310.    
    161      1     94     73      -2310.    
    162      1     97    152      -2310.    
    163      1    118    337      -666.7    
    164      1    133    319      -2678.    
    165      1    131    320      -3951.    
    166      1    133    321      -2956.    
    167      1    161    329      -2141.    
    168      1    178    330      -551.0    
    169      1    163    330      -1122.    
    170      1    131    320      -2473.    
    171      1    129    315      -3937.    
    172      1    162    329      -1959.    
    173      1    131    311      -826.1    
    174      1    221    340      -1994.    
    175      1    220    340      -1034.    
    176      1    221    340      -667.7    
    177      1    137    322      -2082.    
    178      1    137    321      -1407.    
    179      1    185    329      -2012.    
    180      1    183    329      -1473.    
    181      1    175    329      -585.3    
    182      1     79    243      -1490.    
    183      1     77    245      -2414.    
    184      1    199    329      -1617.    
    185      1    198    330      -2514.    
    186      1    140    328      -972.1    
    187      1    143    327      -863.6    
    188      1    139    327      -1331.    

    188 WELLS

 REUSING NON-PARAMETER DRAINS FROM LAST STRESS PERIOD

   1061 DRAINS

 REUSING SURF FROM LAST STRESS PERIOD

 REUSING EVTR FROM LAST STRESS PERIOD

 REUSING EXDP FROM LAST STRESS PERIOD



                           RECHARGE
 READING ON UNIT   19 WITH FORMAT: (510E15.6)          

 SOLVING FOR HEAD 
                                                   Max.-Head-Change                        Max.-Flux-Residual
  Residual-Control   Outer-Iter.   Inner-Iter.     Column Row Layer    Max.-Head-Change    Column Row Layer    Max.-Flux-Residual            L2-New               L2-Old           Solver-Max-Delh
          0                 1           3           263   79     1      -0.2024198629E+02     348  263    1      -0.6796951023E+04      0.3146747329E+05      0.3059159032E+03     -0.2024198629E+02
          0                 2           2           263   79     1       0.1518575734E+01     238   70    1       0.8486295879E+03      0.3221644896E+04      0.3146747329E+05      0.1518575734E+01
          0                 3           2           263   79     1       0.7400641639E-01     238   70    1       0.4238475464E+02      0.1606968280E+03      0.3221644896E+04      0.7400641639E-01

    ------------------------------------------------
       NWT REQUIRED            3 OUTER ITERATIONS 
       AND A TOTAL OF          7 INNER ITERATIONS.
    ------------------------------------------------

 NO OUTPUT CONTROL FOR STRESS PERIOD   82   TIME STEP    1

 WELLS WITH REDUCED PUMPING FOR STRESS PERIOD    82 TIME STEP     1
   LAY   ROW   COL         APPL.Q          ACT.Q        GW-HEAD       CELL-BOT
     1    77   213  -0.230952E+04  -0.143075E+04   0.154945E+03   0.148000E+03
     1    92    77  -0.230952E+04  -0.803017E+03  -0.834307E+02  -0.930000E+02
     1    94    77  -0.230952E+04  -0.634431E+03  -0.942007E+02  -0.102000E+03
     1    94    73  -0.230952E+04  -0.778280E+03  -0.661385E+02  -0.740000E+02


 SOLVING FOR HEAD 
                                                   Max.-Head-Change                        Max.-Flux-Residual
  Residual-Control   Outer-Iter.   Inner-Iter.     Column Row Layer    Max.-Head-Change    Column Row Layer    Max.-Flux-Residual            L2-New               L2-Old           Solver-Max-Delh
          0                 1           3           263   79     1      -0.8979066712E+01     374  316    1      -0.2862829425E+04      0.1499030620E+05      0.1606968280E+03     -0.8979066712E+01
          0                 2           3           263   79     1       0.7103279835E+00     374  316    1       0.2860559130E+03      0.1486003851E+04      0.1499030620E+05      0.7103279835E+00
          0                 3           2           263   79     1       0.3494064108E-01     374  316    1       0.1430109642E+02      0.7421977074E+02      0.1486003851E+04      0.3494064108E-01

    ------------------------------------------------
       NWT REQUIRED            3 OUTER ITERATIONS 
       AND A TOTAL OF          8 INNER ITERATIONS.
    ------------------------------------------------

 NO OUTPUT CONTROL FOR STRESS PERIOD   82   TIME STEP    2

 WELLS WITH REDUCED PUMPING FOR STRESS PERIOD    82 TIME STEP     2
   LAY   ROW   COL         APPL.Q          ACT.Q        GW-HEAD       CELL-BOT
     1    77   213  -0.230952E+04  -0.135910E+04   0.154693E+03   0.148000E+03
     1    92    77  -0.230952E+04  -0.609492E+03  -0.848818E+02  -0.930000E+02
     1    94    77  -0.230952E+04  -0.620897E+03  -0.942988E+02  -0.102000E+03
     1    94    73  -0.230952E+04  -0.758114E+03  -0.662624E+02  -0.740000E+02


 SOLVING FOR HEAD 
                                                   Max.-Head-Change                        Max.-Flux-Residual
  Residual-Control   Outer-Iter.   Inner-Iter.     Column Row Layer    Max.-Head-Change    Column Row Layer    Max.-Flux-Residual            L2-New               L2-Old           Solver-Max-Delh
          0                 1           3           263   79     1      -0.4353872249E+01     374  316    1      -0.2572775194E+04      0.1183116024E+05      0.7421977074E+02     -0.4353872249E+01
          0                 2           2           263   79     1       0.3567795680E+00     374  316    1       0.2570540815E+03      0.1180612922E+04      0.1183116024E+05      0.3567795680E+00
          0                 3           2           263   79     1       0.1766201323E-01     374  316    1       0.1285103131E+02      0.5900320724E+02      0.1180612922E+04      0.1766201323E-01

    ------------------------------------------------
       NWT REQUIRED            3 OUTER ITERATIONS 
       AND A TOTAL OF          7 INNER ITERATIONS.
    ------------------------------------------------

 NO OUTPUT CONTROL FOR STRESS PERIOD   82   TIME STEP    3

 WELLS WITH REDUCED PUMPING FOR STRESS PERIOD    82 TIME STEP     3
   LAY   ROW   COL         APPL.Q          ACT.Q        GW-HEAD       CELL-BOT
     1    77   213  -0.230952E+04  -0.129410E+04   0.154466E+03   0.148000E+03
     1    92    77  -0.230952E+04  -0.517036E+03  -0.856193E+02  -0.930000E+02
     1    94    77  -0.230952E+04  -0.608116E+03  -0.943920E+02  -0.102000E+03
     1    94    73  -0.230952E+04  -0.739243E+03  -0.663790E+02  -0.740000E+02


 SOLVING FOR HEAD 
                                                   Max.-Head-Change                        Max.-Flux-Residual
  Residual-Control   Outer-Iter.   Inner-Iter.     Column Row Layer    Max.-Head-Change    Column Row Layer    Max.-Flux-Residual            L2-New               L2-Old           Solver-Max-Delh
          0                 1           3           263   79     1      -0.2350145084E+01     374  316    1      -0.2318197354E+04      0.1033653596E+05      0.5900320724E+02     -0.2350145084E+01
          0                 2           2           263   79     1       0.1966011103E+00     374  316    1       0.2316087217E+03      0.1031594664E+04      0.1033653596E+05      0.1966011103E+00
          0                 3           2           263   79     1       0.9769742609E-02     374  316    1       0.1157885850E+02      0.5157856026E+02      0.1031594664E+04      0.9769742609E-02

    ------------------------------------------------
       NWT REQUIRED            3 OUTER ITERATIONS 
       AND A TOTAL OF          7 INNER ITERATIONS.
    ------------------------------------------------

 NO OUTPUT CONTROL FOR STRESS PERIOD   82   TIME STEP    4

 WELLS WITH REDUCED PUMPING FOR STRESS PERIOD    82 TIME STEP     4
   LAY   ROW   COL         APPL.Q          ACT.Q        GW-HEAD       CELL-BOT
     1    77   213  -0.230952E+04  -0.123540E+04   0.154262E+03   0.148000E+03
     1    92    77  -0.230952E+04  -0.471092E+03  -0.860011E+02  -0.930000E+02
     1    94    77  -0.230952E+04  -0.596041E+03  -0.944805E+02  -0.102000E+03
     1    94    73  -0.230952E+04  -0.721576E+03  -0.664888E+02  -0.740000E+02


 SOLVING FOR HEAD 
                                                   Max.-Head-Change                        Max.-Flux-Residual
  Residual-Control   Outer-Iter.   Inner-Iter.     Column Row Layer    Max.-Head-Change    Column Row Layer    Max.-Flux-Residual            L2-New               L2-Old           Solver-Max-Delh
          0                 1           3           263   79     1      -0.1425684006E+01     374  316    1      -0.2094001823E+04      0.9434692591E+04      0.5157856026E+02     -0.1425684006E+01
          0                 2           2           263   79     1       0.1206789016E+00     374  316    1       0.2092056378E+03      0.9442457496E+03      0.9434692591E+04      0.1206789016E+00
          0                 3           2           263   79     1       0.6010263157E-02     374  316    1       0.1045882844E+02      0.4721842148E+02      0.9442457496E+03      0.6010263157E-02

    ------------------------------------------------
       NWT REQUIRED            3 OUTER ITERATIONS 
       AND A TOTAL OF          7 INNER ITERATIONS.
    ------------------------------------------------

 NO OUTPUT CONTROL FOR STRESS PERIOD   82   TIME STEP    5

 WELLS WITH REDUCED PUMPING FOR STRESS PERIOD    82 TIME STEP     5
   LAY   ROW   COL         APPL.Q          ACT.Q        GW-HEAD       CELL-BOT
     1    77   213  -0.230952E+04  -0.118254E+04   0.154080E+03   0.148000E+03
     1    92    77  -0.230952E+04  -0.447634E+03  -0.862009E+02  -0.930000E+02
     1    94    77  -0.230952E+04  -0.584628E+03  -0.945647E+02  -0.102000E+03
     1    94    73  -0.230952E+04  -0.705029E+03  -0.665922E+02  -0.740000E+02


 SOLVING FOR HEAD 
                                                   Max.-Head-Change                        Max.-Flux-Residual
  Residual-Control   Outer-Iter.   Inner-Iter.     Column Row Layer    Max.-Head-Change    Column Row Layer    Max.-Flux-Residual            L2-New               L2-Old           Solver-Max-Delh
          0                 1           3           264   78     1      -0.9907726348E+00     378  321    1      -0.1919082394E+04      0.8821414325E+04      0.4721842148E+02     -0.9907726348E+00
          0                 2           2           264   78     1       0.8425221646E-01     378  321    1       0.1917154199E+03      0.8876578566E+03      0.8821414325E+04      0.8425221646E-01

    ------------------------------------------------
       NWT REQUIRED            2 OUTER ITERATIONS 
       AND A TOTAL OF          5 INNER ITERATIONS.
    ------------------------------------------------

 NO OUTPUT CONTROL FOR STRESS PERIOD   82   TIME STEP    6

 WELLS WITH REDUCED PUMPING FOR STRESS PERIOD    82 TIME STEP     6
   LAY   ROW   COL         APPL.Q          ACT.Q        GW-HEAD       CELL-BOT
     1    77   213  -0.230952E+04  -0.113483E+04   0.153915E+03   0.148000E+03
     1    92    77  -0.230952E+04  -0.435417E+03  -0.863063E+02  -0.930000E+02
     1    94    77  -0.230952E+04  -0.573786E+03  -0.946451E+02  -0.102000E+03
     1    94    73  -0.230952E+04  -0.689453E+03  -0.666902E+02  -0.740000E+02


 SOLVING FOR HEAD 
                                                   Max.-Head-Change                        Max.-Flux-Residual
  Residual-Control   Outer-Iter.   Inner-Iter.     Column Row Layer    Max.-Head-Change    Column Row Layer    Max.-Flux-Residual            L2-New               L2-Old           Solver-Max-Delh
          0                 1           3           264   78     1      -0.8551671098E+00     378  321    1      -0.1766224693E+04      0.8372800280E+04      0.4439539411E+02     -0.8551671098E+00
          0                 2           2           264   78     1       0.7271256540E-01     378  321    1       0.1764405829E+03      0.8369318120E+03      0.8372800280E+04      0.7271256540E-01

    ------------------------------------------------
       NWT REQUIRED            2 OUTER ITERATIONS 
       AND A TOTAL OF          5 INNER ITERATIONS.
    ------------------------------------------------

 NO OUTPUT CONTROL FOR STRESS PERIOD   82   TIME STEP    7

 WELLS WITH REDUCED PUMPING FOR STRESS PERIOD    82 TIME STEP     7
   LAY   ROW   COL         APPL.Q          ACT.Q        GW-HEAD       CELL-BOT
     1    77   213  -0.230952E+04  -0.109205E+04   0.153767E+03   0.148000E+03
     1    92    77  -0.230952E+04  -0.429067E+03  -0.863615E+02  -0.930000E+02
     1    94    77  -0.230952E+04  -0.563532E+03  -0.947216E+02  -0.102000E+03
     1    94    73  -0.230952E+04  -0.674857E+03  -0.667824E+02  -0.740000E+02


 SOLVING FOR HEAD 
                                                   Max.-Head-Change                        Max.-Flux-Residual
  Residual-Control   Outer-Iter.   Inner-Iter.     Column Row Layer    Max.-Head-Change    Column Row Layer    Max.-Flux-Residual            L2-New               L2-Old           Solver-Max-Delh
          0                 1           3           343  217     1      -0.7430111056E+00     378  321    1      -0.1630497412E+04      0.8033077769E+04      0.4184309451E+02     -0.7430111056E+00
          0                 2           2           343  217     1       0.6368176491E-01     378  321    1       0.1628802535E+03      0.8081827346E+03      0.8033077769E+04      0.6368176491E-01

    ------------------------------------------------
       NWT REQUIRED            2 OUTER ITERATIONS 
       AND A TOTAL OF          5 INNER ITERATIONS.
    ------------------------------------------------

 NO OUTPUT CONTROL FOR STRESS PERIOD   82   TIME STEP    8

 WELLS WITH REDUCED PUMPING FOR STRESS PERIOD    82 TIME STEP     8
   LAY   ROW   COL         APPL.Q          ACT.Q        GW-HEAD       CELL-BOT
     1    77   213  -0.230952E+04  -0.105372E+04   0.153634E+03   0.148000E+03
     1    92    77  -0.230952E+04  -0.425767E+03  -0.863903E+02  -0.930000E+02
     1    94    77  -0.230952E+04  -0.553830E+03  -0.947944E+02  -0.102000E+03
     1    94    73  -0.230952E+04  -0.661174E+03  -0.668694E+02  -0.740000E+02


 SOLVING FOR HEAD 
                                                   Max.-Head-Change                        Max.-Flux-Residual
  Residual-Control   Outer-Iter.   Inner-Iter.     Column Row Layer    Max.-Head-Change    Column Row Layer    Max.-Flux-Residual            L2-New               L2-Old           Solver-Max-Delh
          0                 1           3           343  217     1      -0.6997105579E+00     378  321    1      -0.1509649382E+04      0.7767849007E+04      0.4040642287E+02     -0.6997105579E+00
          0                 2           2           343  217     1       0.5998293841E-01     378  321    1       0.1508082811E+03      0.7774952035E+03      0.7767849007E+04      0.5998293841E-01

    ------------------------------------------------
       NWT REQUIRED            2 OUTER ITERATIONS 
       AND A TOTAL OF          5 INNER ITERATIONS.
    ------------------------------------------------

 NO OUTPUT CONTROL FOR STRESS PERIOD   82   TIME STEP    9

 WELLS WITH REDUCED PUMPING FOR STRESS PERIOD    82 TIME STEP     9
   LAY   ROW   COL         APPL.Q          ACT.Q        GW-HEAD       CELL-BOT
     1    77   213  -0.230952E+04  -0.101940E+04   0.153515E+03   0.148000E+03
     1    92    77  -0.230952E+04  -0.424065E+03  -0.864052E+02  -0.930000E+02
     1    94    77  -0.230952E+04  -0.544648E+03  -0.948636E+02  -0.102000E+03
     1    94    73  -0.230952E+04  -0.648340E+03  -0.669514E+02  -0.740000E+02


 SOLVING FOR HEAD 
                                                   Max.-Head-Change                        Max.-Flux-Residual
  Residual-Control   Outer-Iter.   Inner-Iter.     Column Row Layer    Max.-Head-Change    Column Row Layer    Max.-Flux-Residual            L2-New               L2-Old           Solver-Max-Delh
          0                 1           3           343  217     1      -0.6548740153E+00     378  321    1      -0.1401766019E+04      0.7556200525E+04      0.3887274611E+02     -0.6548740153E+00
          0                 2           2           343  217     1       0.5615852587E-01     378  321    1       0.1400325832E+03      0.7555035757E+03      0.7556200525E+04      0.5615852587E-01

    ------------------------------------------------
       NWT REQUIRED            2 OUTER ITERATIONS 
       AND A TOTAL OF          5 INNER ITERATIONS.
    ------------------------------------------------

 OUTPUT CONTROL FOR STRESS PERIOD   82   TIME STEP   10
    SAVE HEAD FOR ALL LAYERS

 WELLS WITH REDUCED PUMPING FOR STRESS PERIOD    82 TIME STEP    10
   LAY   ROW   COL         APPL.Q          ACT.Q        GW-HEAD       CELL-BOT
     1    77   213  -0.230952E+04  -0.988664E+03   0.153408E+03   0.148000E+03
     1    92    77  -0.230952E+04  -0.423201E+03  -0.864127E+02  -0.930000E+02
     1    94    77  -0.230952E+04  -0.535953E+03  -0.949295E+02  -0.102000E+03
     1    94    73  -0.230952E+04  -0.636298E+03  -0.670288E+02  -0.740000E+02


 HEAD WILL BE SAVED ON UNIT   51 AT END OF TIME STEP   10, STRESS PERIOD   82
1
  VOLUMETRIC BUDGET FOR ENTIRE MODEL AT END OF TIME STEP   10, STRESS PERIOD  82
  ------------------------------------------------------------------------------

     CUMULATIVE VOLUMES      L**3       RATES FOR THIS TIME STEP      L**3/T
     ------------------                 ------------------------

           IN:                                      IN:
           ---                                      ---
             STORAGE =   781583040.0000               STORAGE =      388026.3125
       CONSTANT HEAD =   127504344.0000         CONSTANT HEAD =       52173.0859
               WELLS =           0.0000                 WELLS =           0.0000
              DRAINS =           0.0000                DRAINS =           0.0000
                  ET =           0.0000                    ET =           0.0000
            RECHARGE =   439042688.0000              RECHARGE =      151869.0156

            TOTAL IN =  1348130048.0000              TOTAL IN =      592068.4375

          OUT:                                     OUT:
          ----                                     ----
             STORAGE =   230652960.0000               STORAGE =        9626.8496
       CONSTANT HEAD =           0.0000         CONSTANT HEAD =           0.0000
               WELLS =   741291072.0000                 WELLS =      477797.7188
              DRAINS =   266329696.0000                DRAINS =       73647.0391
                  ET =   107613824.0000                    ET =       29110.2227
            RECHARGE =      525047.1875              RECHARGE =           0.0000

           TOTAL OUT =  1346412672.0000             TOTAL OUT =      590181.8750

            IN - OUT =     1717376.0000              IN - OUT =        1886.5625

 PERCENT DISCREPANCY =           0.13     PERCENT DISCREPANCY =           0.32






         TIME SUMMARY AT END OF TIME STEP   10 IN STRESS PERIOD   82
                    SECONDS     MINUTES      HOURS       DAYS        YEARS
                    -----------------------------------------------------------
   TIME STEP LENGTH 2.62656E+05  4377.6      72.960      3.0400     8.32307E-03
 STRESS PERIOD TIME 2.62656E+06  43776.      729.60      30.400     8.32307E-02
         TOTAL TIME 2.15379E+08 3.58965E+06  59828.      2492.8      6.8250    
1
1
                            STRESS PERIOD NO.   83, LENGTH =   30.40000    
                            -----------------------------------------------

                              NUMBER OF TIME STEPS =    10

                               MULTIPLIER FOR DELT =     1.000

                            INITIAL TIME STEP SIZE =   3.040000    

 WELL NO.  LAYER   ROW   COL   STRESS RATE         
 --------------------------------------------------
      1      1     69    225      -7085.    
      2      1     71    224       0.000    
      3      1     74    220       0.000    
      4      1     73    220       0.000    
      5      1     71    223       0.000    
      6      1     71    223       0.000    
      7      1     72    223       0.000    
      8      1     92    173       0.000    
      9      1     94    174       0.000    
     10      1     93    175       0.000    
     11      1    203    328       0.000    
     12      1    438    460      -2499.    
     13      1    436    461      -2499.    
     14      1    410    454      -2499.    
     15      1    433    460      -2499.    
     16      1    431    462      -2499.    
     17      1    417    459      -2499.    
     18      1    418    458      -2499.    
     19      1    414    455      -2499.    
     20      1    443    464      -2499.    
     21      1    379    425      -2499.    
     22      1    362    405      -2499.    
     23      1    361    405      -2499.    
     24      1    362    406      -2499.    
     25      1    363    408      -2499.    
     26      1    364    410      -2499.    
     27      1    369    418      -2499.    
     28      1    367    417      -2499.    
     29      1    365    415      -2499.    
     30      1    402    447      -2499.    
     31      1    400    446      -2499.    
     32      1    392    444      -2499.    
     33      1    391    441      -2499.    
     34      1    403    448      -2499.    
     35      1    405    447      -2499.    
     36      1    362    410      -2499.    
     37      1    362    411      -2499.    
     38      1    363    412      -2499.    
     39      1    375    421      -2499.    
     40      1    383    430      -2499.    
     41      1    397    445      -2499.    
     42      1    360    403      -2499.    
     43      1    350    401      -2499.    
     44      1    346    393      -3513.    
     45      1    333    387      -3513.    
     46      1    328    384      -3513.    
     47      1    326    383      -3513.    
     48      1    323    378      -3513.    
     49      1    321    378      -3513.    
     50      1    322    376      -3513.    
     51      1    316    374      -3513.    
     52      1    311    371      -3513.    
     53      1    307    369      -3513.    
     54      1    305    368      -3513.    
     55      1    303    368      -3513.    
     56      1    300    369      -3513.    
     57      1    293    364      -3513.    
     58      1    292    362      -3513.    
     59      1    278    350      -3513.    
     60      1    274    351      -3513.    
     61      1    273    350      -3513.    
     62      1    271    350      -3513.    
     63      1    267    348      -3513.    
     64      1    263    348      -3513.    
     65      1    263    348      -3513.    
     66      1    248    347      -3513.    
     67      1    243    342      -3513.    
     68      1    242    339      -3513.    
     69      1    238    341      -3513.    
     70      1    233    340      -3513.    
     71      1    232    340      -3513.    
     72      1    229    341      -3513.    
     73      1    227    341      -3513.    
     74      1    219    342      -3513.    
     75      1    219    336      -3513.    
     76      1    199    329      -3513.    
     77      1    191    332      -4440.    
     78      1    190    332      -4440.    
     79      1    130    310      -4440.    
     80      1    123    305      -4440.    
     81      1    104    289      -4440.    
     82      1     96    287      -3788.    
     83      1     95    284      -3788.    
     84      1     95    280      -3788.    
     85      1     93    276      -3788.    
     86      1     94    275      -3788.    
     87      1     90    277      -3788.    
     88      1     90    273      -3788.    
     89      1     86    271      -3788.    
     90      1     85    270      -3788.    
     91      1     84    265      -3788.    
     92      1     85    265      -3788.    
     93      1     84    264      -3788.    
     94      1     79    263      -3788.    
     95      1     79    263      -3788.    
     96      1     76    262      -3788.    
     97      1     73    257      -3788.    
     98      1     74    255      -3788.    
     99      1     71    255      -3788.    
    100      1     66    253      -3788.    
    101      1     68    252      -3788.    
    102      1     69    250      -3788.    
    103      1     65    248      -3788.    
    104      1     68    248      -3788.    
    105      1     69    247      -3788.    
    106      1     73    247      -3788.    
    107      1     64    246      -3788.    
    108      1     69    245      -3788.    
    109      1     72    245      -3788.    
    110      1     69    241      -3788.    
    111      1     73    238      -3788.    
    112      1     70    238      -3788.    
    113      1     76    263      -3788.    
    114      1     66    232      -2343.    
    115      1     69    229      -2343.    
    116      1     71    228      -2343.    
    117      1     69    227      -2343.    
    118      1     72    219      -2343.    
    119      1     72    218      -2343.    
    120      1     72    218      -2343.    
    121      1     73    217      -2343.    
    122      1     77    219      -2343.    
    123      1     78    219      -2343.    
    124      1     83    213      -2343.    
    125      1     77    213      -2343.    
    126      1     81    211      -2343.    
    127      1     81    210      -2343.    
    128      1     81    210      -2343.    
    129      1     82    208      -2343.    
    130      1     80    205      -2343.    
    131      1     86    202      -2343.    
    132      1     84    200      -2343.    
    133      1     89    200      -2343.    
    134      1     89    199      -2343.    
    135      1     88    199      -2343.    
    136      1     86    199      -2343.    
    137      1     85    199      -2343.    
    138      1     82    197      -2343.    
    139      1     86    197      -2343.    
    140      1     88    198      -2343.    
    141      1     90    192      -2343.    
    142      1     89    191      -2343.    
    143      1     84    192      -2343.    
    144      1     91    189      -2343.    
    145      1     92    185      -2343.    
    146      1     87    183      -2343.    
    147      1     92    182      -2343.    
    148      1     90    182      -2343.    
    149      1     88    179      -2343.    
    150      1     89    176      -2343.    
    151      1     92    172      -2343.    
    152      1     93    164      -2343.    
    153      1     94    162      -2343.    
    154      1    103    156      -2343.    
    155      1    103    156      -2343.    
    156      1     96    154      -2343.    
    157      1     97    153      -2343.    
    158      1    122    139      -2343.    
    159      1     92     77      -2343.    
    160      1     94     77      -2343.    
    161      1     94     73      -2343.    
    162      1     97    152      -2343.    
    163      1    118    337      -666.7    
    164      1    133    319      -2678.    
    165      1    131    320      -3951.    
    166      1    133    321      -2956.    
    167      1    161    329      -2141.    
    168      1    178    330      -551.0    
    169      1    163    330      -1122.    
    170      1    131    320      -2473.    
    171      1    129    315      -3937.    
    172      1    162    329      -1959.    
    173      1    131    311      -826.1    
    174      1    221    340      -1994.    
    175      1    220    340      -1034.    
    176      1    221    340      -667.7    
    177      1    137    322      -2082.    
    178      1    137    321      -1407.    
    179      1    185    329      -2012.    
    180      1    183    329      -1473.    
    181      1    175    329      -585.3    
    182      1     79    243      -1490.    
    183      1     77    245      -2414.    
    184      1    199    329      -1617.    
    185      1    198    330      -2514.    
    186      1    140    328      -972.1    
    187      1    143    327      -863.6    
    188      1    139    327      -1331.    

    188 WELLS

 REUSING NON-PARAMETER DRAINS FROM LAST STRESS PERIOD

   1061 DRAINS

 REUSING SURF FROM LAST STRESS PERIOD

 REUSING EVTR FROM LAST STRESS PERIOD

 REUSING EXDP FROM LAST STRESS PERIOD



                           RECHARGE
 READING ON UNIT   19 WITH FORMAT: (510E15.6)          

 SOLVING FOR HEAD 
                                                   Max.-Head-Change                        Max.-Flux-Residual
  Residual-Control   Outer-Iter.   Inner-Iter.     Column Row Layer    Max.-Head-Change    Column Row Layer    Max.-Flux-Residual            L2-New               L2-Old           Solver-Max-Delh
          0                 1           3           263   79     1       0.2959397166E+01     348  263    1       0.1001499906E+04      0.7646707758E+04      0.3777359034E+02      0.2959397166E+01
          0                 2           2           263   79     1      -0.2567917659E+00     348  263    1      -0.9962858741E+02      0.7694918822E+03      0.7646707758E+04     -0.2567917659E+00
          0                 3           2           263   79     1      -0.1285226319E-01     348  263    1      -0.4977538886E+01      0.3848019772E+02      0.7694918822E+03     -0.1285226319E-01

    ------------------------------------------------
       NWT REQUIRED            3 OUTER ITERATIONS 
       AND A TOTAL OF          7 INNER ITERATIONS.
    ------------------------------------------------

 NO OUTPUT CONTROL FOR STRESS PERIOD   83   TIME STEP    1

 WELLS WITH REDUCED PUMPING FOR STRESS PERIOD    83 TIME STEP     1
   LAY   ROW   COL         APPL.Q          ACT.Q        GW-HEAD       CELL-BOT
     1    77   213  -0.234339E+04  -0.974023E+03   0.153308E+03   0.148000E+03
     1    92    77  -0.234339E+04  -0.426342E+03  -0.864392E+02  -0.930000E+02
     1    94    77  -0.234339E+04  -0.535146E+03  -0.949945E+02  -0.102000E+03
     1    94    73  -0.234339E+04  -0.633725E+03  -0.671046E+02  -0.740000E+02


 SOLVING FOR HEAD 
                                                   Max.-Head-Change                        Max.-Flux-Residual
  Residual-Control   Outer-Iter.   Inner-Iter.     Column Row Layer    Max.-Head-Change    Column Row Layer    Max.-Flux-Residual            L2-New               L2-Old           Solver-Max-Delh
          0                 1           3           263   79     1       0.1148690642E+01     213   83    1      -0.8944613791E+03      0.6300324242E+04      0.3848019772E+02      0.1148690642E+01
          0                 2           2           263   79     1      -0.9907645096E-01     213   83    1       0.8942172485E+02      0.6298857845E+03      0.6300324242E+04     -0.9907645096E-01

    ------------------------------------------------
       NWT REQUIRED            2 OUTER ITERATIONS 
       AND A TOTAL OF          5 INNER ITERATIONS.
    ------------------------------------------------

 NO OUTPUT CONTROL FOR STRESS PERIOD   83   TIME STEP    2

 WELLS WITH REDUCED PUMPING FOR STRESS PERIOD    83 TIME STEP     2
   LAY   ROW   COL         APPL.Q          ACT.Q        GW-HEAD       CELL-BOT
     1    77   213  -0.234339E+04  -0.947830E+03   0.153217E+03   0.148000E+03
     1    92    77  -0.234339E+04  -0.424757E+03  -0.864530E+02  -0.930000E+02
     1    94    77  -0.234339E+04  -0.526900E+03  -0.950567E+02  -0.102000E+03
     1    94    73  -0.234339E+04  -0.622500E+03  -0.671764E+02  -0.740000E+02


 SOLVING FOR HEAD 
                                                   Max.-Head-Change                        Max.-Flux-Residual
  Residual-Control   Outer-Iter.   Inner-Iter.     Column Row Layer    Max.-Head-Change    Column Row Layer    Max.-Flux-Residual            L2-New               L2-Old           Solver-Max-Delh
          0                 1           3           263   79     1       0.4048219214E+00     213   83    1      -0.8816127725E+03      0.6119237123E+04      0.3150358928E+02      0.4048219214E+00
          0                 2           2           263   79     1      -0.3473747975E-01     213   83    1       0.8813732886E+02      0.6124915842E+03      0.6119237123E+04     -0.3473747975E-01

    ------------------------------------------------
       NWT REQUIRED            2 OUTER ITERATIONS 
       AND A TOTAL OF          5 INNER ITERATIONS.
    ------------------------------------------------

 NO OUTPUT CONTROL FOR STRESS PERIOD   83   TIME STEP    3

 WELLS WITH REDUCED PUMPING FOR STRESS PERIOD    83 TIME STEP     3
   LAY   ROW   COL         APPL.Q          ACT.Q        GW-HEAD       CELL-BOT
     1    77   213  -0.234339E+04  -0.924397E+03   0.153136E+03   0.148000E+03
     1    92    77  -0.234339E+04  -0.423960E+03  -0.864599E+02  -0.930000E+02
     1    94    77  -0.234339E+04  -0.519089E+03  -0.951159E+02  -0.102000E+03
     1    94    73  -0.234339E+04  -0.611965E+03  -0.672441E+02  -0.740000E+02


 SOLVING FOR HEAD 
                                                   Max.-Head-Change                        Max.-Flux-Residual
  Residual-Control   Outer-Iter.   Inner-Iter.     Column Row Layer    Max.-Head-Change    Column Row Layer    Max.-Flux-Residual            L2-New               L2-Old           Solver-Max-Delh
          0                 1           3           213   83     1      -0.3572032490E+00     213   83    1      -0.8690415336E+03      0.6028946256E+04      0.3062405726E+02     -0.3572032490E+00
          0                 2           2           213   83     1       0.3084257393E-01     213   83    1       0.8688066951E+02      0.6028359353E+03      0.6028946256E+04      0.3084257393E-01

    ------------------------------------------------
       NWT REQUIRED            2 OUTER ITERATIONS 
       AND A TOTAL OF          5 INNER ITERATIONS.
    ------------------------------------------------

 NO OUTPUT CONTROL FOR STRESS PERIOD   83   TIME STEP    4

 WELLS WITH REDUCED PUMPING FOR STRESS PERIOD    83 TIME STEP     4
   LAY   ROW   COL         APPL.Q          ACT.Q        GW-HEAD       CELL-BOT
     1    77   213  -0.234339E+04  -0.903425E+03   0.153063E+03   0.148000E+03
     1    92    77  -0.234339E+04  -0.423577E+03  -0.864632E+02  -0.930000E+02
     1    94    77  -0.234339E+04  -0.511689E+03  -0.951723E+02  -0.102000E+03
     1    94    73  -0.234339E+04  -0.602072E+03  -0.673080E+02  -0.740000E+02


 SOLVING FOR HEAD 
                                                   Max.-Head-Change                        Max.-Flux-Residual
  Residual-Control   Outer-Iter.   Inner-Iter.     Column Row Layer    Max.-Head-Change    Column Row Layer    Max.-Flux-Residual            L2-New               L2-Old           Solver-Max-Delh
          0                 1           3           213   83     1      -0.3521868899E+00     213   83    1      -0.8567374924E+03      0.5965833563E+04      0.3014129955E+02     -0.3521868899E+00
          0                 2           2           213   83     1       0.3040947528E-01     213   83    1       0.8565072426E+02      0.5965282877E+03      0.5965833563E+04      0.3040947528E-01

    ------------------------------------------------
       NWT REQUIRED            2 OUTER ITERATIONS 
       AND A TOTAL OF          5 INNER ITERATIONS.
    ------------------------------------------------

 NO OUTPUT CONTROL FOR STRESS PERIOD   83   TIME STEP    5

 WELLS WITH REDUCED PUMPING FOR STRESS PERIOD    83 TIME STEP     5
   LAY   ROW   COL         APPL.Q          ACT.Q        GW-HEAD       CELL-BOT
     1    77   213  -0.234339E+04  -0.884643E+03   0.152997E+03   0.148000E+03
     1    92    77  -0.234339E+04  -0.423409E+03  -0.864646E+02  -0.930000E+02
     1    94    77  -0.234339E+04  -0.504674E+03  -0.952259E+02  -0.102000E+03
     1    94    73  -0.234339E+04  -0.592777E+03  -0.673684E+02  -0.740000E+02


 SOLVING FOR HEAD 
                                                   Max.-Head-Change                        Max.-Flux-Residual
  Residual-Control   Outer-Iter.   Inner-Iter.     Column Row Layer    Max.-Head-Change    Column Row Layer    Max.-Flux-Residual            L2-New               L2-Old           Solver-Max-Delh
          0                 1           3           213   83     1      -0.3472754213E+00     213   83    1      -0.8446926637E+03      0.5915207473E+04      0.2982608655E+02     -0.3472754213E+00
          0                 2           2           213   83     1       0.2998543339E-01     213   83    1       0.8444669326E+02      0.5918181146E+03      0.5915207473E+04      0.2998543339E-01

    ------------------------------------------------
       NWT REQUIRED            2 OUTER ITERATIONS 
       AND A TOTAL OF          5 INNER ITERATIONS.
    ------------------------------------------------

 NO OUTPUT CONTROL FOR STRESS PERIOD   83   TIME STEP    6

 WELLS WITH REDUCED PUMPING FOR STRESS PERIOD    83 TIME STEP     6
   LAY   ROW   COL         APPL.Q          ACT.Q        GW-HEAD       CELL-BOT
     1    77   213  -0.234339E+04  -0.867812E+03   0.152938E+03   0.148000E+03
     1    92    77  -0.234339E+04  -0.423354E+03  -0.864651E+02  -0.930000E+02
     1    94    77  -0.234339E+04  -0.498022E+03  -0.952771E+02  -0.102000E+03
     1    94    73  -0.234339E+04  -0.584042E+03  -0.674253E+02  -0.740000E+02


 SOLVING FOR HEAD 
                                                   Max.-Head-Change                        Max.-Flux-Residual
  Residual-Control   Outer-Iter.   Inner-Iter.     Column Row Layer    Max.-Head-Change    Column Row Layer    Max.-Flux-Residual            L2-New               L2-Old           Solver-Max-Delh
          0                 1           3           213   83     1      -0.3424661069E+00     213   83    1      -0.8329000325E+03      0.5871876932E+04      0.2959053975E+02     -0.3424661069E+00
          0                 2           2           213   83     1       0.2957021175E-01     213   83    1       0.8326787439E+02      0.5871479980E+03      0.5871876932E+04      0.2957021175E-01

    ------------------------------------------------
       NWT REQUIRED            2 OUTER ITERATIONS 
       AND A TOTAL OF          5 INNER ITERATIONS.
    ------------------------------------------------

 NO OUTPUT CONTROL FOR STRESS PERIOD   83   TIME STEP    7

 WELLS WITH REDUCED PUMPING FOR STRESS PERIOD    83 TIME STEP     7
   LAY   ROW   COL         APPL.Q          ACT.Q        GW-HEAD       CELL-BOT
     1    77   213  -0.234339E+04  -0.852720E+03   0.152885E+03   0.148000E+03
     1    92    77  -0.234339E+04  -0.423357E+03  -0.864651E+02  -0.930000E+02
     1    94    77  -0.234339E+04  -0.491712E+03  -0.953257E+02  -0.102000E+03
     1    94    73  -0.234339E+04  -0.575829E+03  -0.674791E+02  -0.740000E+02


 SOLVING FOR HEAD 
                                                   Max.-Head-Change                        Max.-Flux-Residual
  Residual-Control   Outer-Iter.   Inner-Iter.     Column Row Layer    Max.-Head-Change    Column Row Layer    Max.-Flux-Residual            L2-New               L2-Old           Solver-Max-Delh
          0                 1           3           213   83     1      -0.3377562827E+00     213   83    1      -0.8213528260E+03      0.5833467814E+04      0.2935972168E+02     -0.3377562827E+00
          0                 2           2           213   83     1       0.2916358018E-01     213   83    1       0.8211358999E+02      0.5833689471E+03      0.5833467814E+04      0.2916358018E-01

    ------------------------------------------------
       NWT REQUIRED            2 OUTER ITERATIONS 
       AND A TOTAL OF          5 INNER ITERATIONS.
    ------------------------------------------------

 NO OUTPUT CONTROL FOR STRESS PERIOD   83   TIME STEP    8

 WELLS WITH REDUCED PUMPING FOR STRESS PERIOD    83 TIME STEP     8
   LAY   ROW   COL         APPL.Q          ACT.Q        GW-HEAD       CELL-BOT
     1    77   213  -0.234339E+04  -0.839177E+03   0.152838E+03   0.148000E+03
     1    92    77  -0.234339E+04  -0.423391E+03  -0.864648E+02  -0.930000E+02
     1    94    77  -0.234339E+04  -0.485725E+03  -0.953721E+02  -0.102000E+03
     1    94    73  -0.234339E+04  -0.568104E+03  -0.675299E+02  -0.740000E+02


 SOLVING FOR HEAD 
                                                   Max.-Head-Change                        Max.-Flux-Residual
  Residual-Control   Outer-Iter.   Inner-Iter.     Column Row Layer    Max.-Head-Change    Column Row Layer    Max.-Flux-Residual            L2-New               L2-Old           Solver-Max-Delh
          0                 1           3           213   83     1      -0.3331435539E+00     213   83    1      -0.8100449572E+03      0.5799092533E+04      0.2916814074E+02     -0.3331435539E+00
          0                 2           2           213   83     1       0.2876533175E-01     213   83    1       0.8098323104E+02      0.5798715078E+03      0.5799092533E+04      0.2876533175E-01

    ------------------------------------------------
       NWT REQUIRED            2 OUTER ITERATIONS 
       AND A TOTAL OF          5 INNER ITERATIONS.
    ------------------------------------------------

 NO OUTPUT CONTROL FOR STRESS PERIOD   83   TIME STEP    9

 WELLS WITH REDUCED PUMPING FOR STRESS PERIOD    83 TIME STEP     9
   LAY   ROW   COL         APPL.Q          ACT.Q        GW-HEAD       CELL-BOT
     1    77   213  -0.234339E+04  -0.827017E+03   0.152795E+03   0.148000E+03
     1    92    77  -0.234339E+04  -0.423438E+03  -0.864644E+02  -0.930000E+02
     1    94    77  -0.234339E+04  -0.480041E+03  -0.954164E+02  -0.102000E+03
     1    94    73  -0.234339E+04  -0.560834E+03  -0.675779E+02  -0.740000E+02


 SOLVING FOR HEAD 
                                                   Max.-Head-Change                        Max.-Flux-Residual
  Residual-Control   Outer-Iter.   Inner-Iter.     Column Row Layer    Max.-Head-Change    Column Row Layer    Max.-Flux-Residual            L2-New               L2-Old           Solver-Max-Delh
          0                 1           3           213   83     1      -0.3286255255E+00     213   83    1      -0.7989703703E+03      0.5767838644E+04      0.2899329238E+02     -0.3286255255E+00
          0                 2           2           213   83     1       0.2837525954E-01     213   83    1       0.7987619175E+02      0.5767463555E+03      0.5767838644E+04      0.2837525954E-01

    ------------------------------------------------
       NWT REQUIRED            2 OUTER ITERATIONS 
       AND A TOTAL OF          5 INNER ITERATIONS.
    ------------------------------------------------

 OUTPUT CONTROL FOR STRESS PERIOD   83   TIME STEP   10
    SAVE HEAD FOR ALL LAYERS

 WELLS WITH REDUCED PUMPING FOR STRESS PERIOD    83 TIME STEP    10
   LAY   ROW   COL         APPL.Q          ACT.Q        GW-HEAD       CELL-BOT
     1    77   213  -0.234339E+04  -0.816090E+03   0.152756E+03   0.148000E+03
     1    92    77  -0.234339E+04  -0.423493E+03  -0.864639E+02  -0.930000E+02
     1    94    77  -0.234339E+04  -0.474643E+03  -0.954585E+02  -0.102000E+03
     1    94    73  -0.234339E+04  -0.553990E+03  -0.676233E+02  -0.740000E+02


 HEAD WILL BE SAVED ON UNIT   51 AT END OF TIME STEP   10, STRESS PERIOD   83
1
  VOLUMETRIC BUDGET FOR ENTIRE MODEL AT END OF TIME STEP   10, STRESS PERIOD  83
  ------------------------------------------------------------------------------

     CUMULATIVE VOLUMES      L**3       RATES FOR THIS TIME STEP      L**3/T
     ------------------                 ------------------------

           IN:                                      IN:
           ---                                      ---
             STORAGE =   791728448.0000               STORAGE =      331439.4688
       CONSTANT HEAD =   129090424.0000         CONSTANT HEAD =       52174.7344
               WELLS =           0.0000                 WELLS =           0.0000
              DRAINS =           0.0000                DRAINS =           0.0000
                  ET =           0.0000                    ET =           0.0000
            RECHARGE =   444057088.0000              RECHARGE =      164952.0938

            TOTAL IN =  1364876032.0000              TOTAL IN =      548566.2500

          OUT:                                     OUT:
          ----                                     ----
             STORAGE =   230990416.0000               STORAGE =       10007.6738
       CONSTANT HEAD =           0.0000         CONSTANT HEAD =           0.0000
               WELLS =   754578688.0000                 WELLS =      436957.8750
              DRAINS =   268522944.0000                DRAINS =       71071.5547
                  ET =   108497424.0000                    ET =       28928.6699
            RECHARGE =      525047.1875              RECHARGE =           0.0000

           TOTAL OUT =  1363114496.0000             TOTAL OUT =      546965.8125

            IN - OUT =     1761536.0000              IN - OUT =        1600.4375

 PERCENT DISCREPANCY =           0.13     PERCENT DISCREPANCY =           0.29






         TIME SUMMARY AT END OF TIME STEP   10 IN STRESS PERIOD   83
                    SECONDS     MINUTES      HOURS       DAYS        YEARS
                    -----------------------------------------------------------
   TIME STEP LENGTH 2.62656E+05  4377.6      72.960      3.0400     8.32307E-03
 STRESS PERIOD TIME 2.62656E+06  43776.      729.60      30.400     8.32307E-02
         TOTAL TIME 2.18006E+08 3.63343E+06  60557.      2523.2      6.9082    
1
1
                            STRESS PERIOD NO.   84, LENGTH =   30.40000    
                            -----------------------------------------------

                              NUMBER OF TIME STEPS =    10

                               MULTIPLIER FOR DELT =     1.000

                            INITIAL TIME STEP SIZE =   3.040000    

 WELL NO.  LAYER   ROW   COL   STRESS RATE         
 --------------------------------------------------
      1      1     69    225      -7171.    
      2      1     71    224       0.000    
      3      1     74    220       0.000    
      4      1     73    220       0.000    
      5      1     71    223       0.000    
      6      1     71    223       0.000    
      7      1     72    223       0.000    
      8      1     92    173       0.000    
      9      1     94    174       0.000    
     10      1     93    175       0.000    
     11      1    203    328       0.000    
     12      1    438    460      -0.000    
     13      1    436    461      -0.000    
     14      1    410    454      -0.000    
     15      1    433    460      -0.000    
     16      1    431    462      -0.000    
     17      1    417    459      -0.000    
     18      1    418    458      -0.000    
     19      1    414    455      -0.000    
     20      1    443    464      -0.000    
     21      1    379    425      -0.000    
     22      1    362    405      -0.000    
     23      1    361    405      -0.000    
     24      1    362    406      -0.000    
     25      1    363    408      -0.000    
     26      1    364    410      -0.000    
     27      1    369    418      -0.000    
     28      1    367    417      -0.000    
     29      1    365    415      -0.000    
     30      1    402    447      -0.000    
     31      1    400    446      -0.000    
     32      1    392    444      -0.000    
     33      1    391    441      -0.000    
     34      1    403    448      -0.000    
     35      1    405    447      -0.000    
     36      1    362    410      -0.000    
     37      1    362    411      -0.000    
     38      1    363    412      -0.000    
     39      1    375    421      -0.000    
     40      1    383    430      -0.000    
     41      1    397    445      -0.000    
     42      1    360    403      -0.000    
     43      1    350    401      -0.000    
     44      1    346    393      -49.88    
     45      1    333    387      -49.88    
     46      1    328    384      -49.88    
     47      1    326    383      -49.88    
     48      1    323    378      -49.88    
     49      1    321    378      -49.88    
     50      1    322    376      -49.88    
     51      1    316    374      -49.88    
     52      1    311    371      -49.88    
     53      1    307    369      -49.88    
     54      1    305    368      -49.88    
     55      1    303    368      -49.88    
     56      1    300    369      -49.88    
     57      1    293    364      -49.88    
     58      1    292    362      -49.88    
     59      1    278    350      -49.88    
     60      1    274    351      -49.88    
     61      1    273    350      -49.88    
     62      1    271    350      -49.88    
     63      1    267    348      -49.88    
     64      1    263    348      -49.88    
     65      1    263    348      -49.88    
     66      1    248    347      -49.88    
     67      1    243    342      -49.88    
     68      1    242    339      -49.88    
     69      1    238    341      -49.88    
     70      1    233    340      -49.88    
     71      1    232    340      -49.88    
     72      1    229    341      -49.88    
     73      1    227    341      -49.88    
     74      1    219    342      -49.88    
     75      1    219    336      -49.88    
     76      1    199    329      -49.88    
     77      1    191    332      -0.000    
     78      1    190    332      -0.000    
     79      1    130    310      -0.000    
     80      1    123    305      -0.000    
     81      1    104    289      -0.000    
     82      1     96    287      -510.6    
     83      1     95    284      -510.6    
     84      1     95    280      -510.6    
     85      1     93    276      -510.6    
     86      1     94    275      -510.6    
     87      1     90    277      -510.6    
     88      1     90    273      -510.6    
     89      1     86    271      -510.6    
     90      1     85    270      -510.6    
     91      1     84    265      -510.6    
     92      1     85    265      -510.6    
     93      1     84    264      -510.6    
     94      1     79    263      -510.6    
     95      1     79    263      -510.6    
     96      1     76    262      -510.6    
     97      1     73    257      -510.6    
     98      1     74    255      -510.6    
     99      1     71    255      -510.6    
    100      1     66    253      -510.6    
    101      1     68    252      -510.6    
    102      1     69    250      -510.6    
    103      1     65    248      -510.6    
    104      1     68    248      -510.6    
    105      1     69    247      -510.6    
    106      1     73    247      -510.6    
    107      1     64    246      -510.6    
    108      1     69    245      -510.6    
    109      1     72    245      -510.6    
    110      1     69    241      -510.6    
    111      1     73    238      -510.6    
    112      1     70    238      -510.6    
    113      1     76    263      -510.6    
    114      1     66    232      -620.9    
    115      1     69    229      -620.9    
    116      1     71    228      -620.9    
    117      1     69    227      -620.9    
    118      1     72    219      -620.9    
    119      1     72    218      -620.9    
    120      1     72    218      -620.9    
    121      1     73    217      -620.9    
    122      1     77    219      -620.9    
    123      1     78    219      -620.9    
    124      1     83    213      -620.9    
    125      1     77    213      -620.9    
    126      1     81    211      -620.9    
    127      1     81    210      -620.9    
    128      1     81    210      -620.9    
    129      1     82    208      -620.9    
    130      1     80    205      -620.9    
    131      1     86    202      -620.9    
    132      1     84    200      -620.9    
    133      1     89    200      -620.9    
    134      1     89    199      -620.9    
    135      1     88    199      -620.9    
    136      1     86    199      -620.9    
    137      1     85    199      -620.9    
    138      1     82    197      -620.9    
    139      1     86    197      -620.9    
    140      1     88    198      -620.9    
    141      1     90    192      -620.9    
    142      1     89    191      -620.9    
    143      1     84    192      -620.9    
    144      1     91    189      -620.9    
    145      1     92    185      -620.9    
    146      1     87    183      -620.9    
    147      1     92    182      -620.9    
    148      1     90    182      -620.9    
    149      1     88    179      -620.9    
    150      1     89    176      -620.9    
    151      1     92    172      -620.9    
    152      1     93    164      -620.9    
    153      1     94    162      -620.9    
    154      1    103    156      -620.9    
    155      1    103    156      -620.9    
    156      1     96    154      -620.9    
    157      1     97    153      -620.9    
    158      1    122    139      -620.9    
    159      1     92     77      -620.9    
    160      1     94     77      -620.9    
    161      1     94     73      -620.9    
    162      1     97    152      -620.9    
    163      1    118    337      -666.7    
    164      1    133    319      -2678.    
    165      1    131    320      -3951.    
    166      1    133    321      -2956.    
    167      1    161    329      -2141.    
    168      1    178    330      -551.0    
    169      1    163    330      -1122.    
    170      1    131    320      -2473.    
    171      1    129    315      -3937.    
    172      1    162    329      -1959.    
    173      1    131    311      -826.1    
    174      1    221    340      -1994.    
    175      1    220    340      -1034.    
    176      1    221    340      -667.7    
    177      1    137    322      -2082.    
    178      1    137    321      -1407.    
    179      1    185    329      -2012.    
    180      1    183    329      -1473.    
    181      1    175    329      -585.3    
    182      1     79    243      -1490.    
    183      1     77    245      -2414.    
    184      1    199    329      -1617.    
    185      1    198    330      -2514.    
    186      1    140    328      -972.1    
    187      1    143    327      -863.6    
    188      1    139    327      -1331.    

    188 WELLS

 REUSING NON-PARAMETER DRAINS FROM LAST STRESS PERIOD

   1061 DRAINS

 REUSING SURF FROM LAST STRESS PERIOD

 REUSING EVTR FROM LAST STRESS PERIOD

 REUSING EXDP FROM LAST STRESS PERIOD



                           RECHARGE
 READING ON UNIT   19 WITH FORMAT: (510E15.6)          

 SOLVING FOR HEAD 
                                                   Max.-Head-Change                        Max.-Flux-Residual
  Residual-Control   Outer-Iter.   Inner-Iter.     Column Row Layer    Max.-Head-Change    Column Row Layer    Max.-Flux-Residual            L2-New               L2-Old           Solver-Max-Delh
          0                 1           3           263   79     1       0.2164317652E+02     348  263    1       0.6831168809E+04      0.3181908029E+05      0.2883704475E+02      0.2164317652E+02
          0                 2           2           263   79     1      -0.2111661709E+01     348  263    1      -0.7885973771E+03      0.3285433127E+04      0.3181908029E+05     -0.2111661709E+01
          0                 3           2           263   79     1      -0.1084330184E+00     348  263    1      -0.3984768946E+02      0.1669487870E+03      0.3285433127E+04     -0.1084330184E+00
          0                 4           2           263   79     1      -0.5428032231E-02     448  406    1       0.2574584600E+01      0.8733124945E+01      0.1669487870E+03     -0.5428032231E-02

    ------------------------------------------------
       NWT REQUIRED            4 OUTER ITERATIONS 
       AND A TOTAL OF          9 INNER ITERATIONS.
    ------------------------------------------------

 NO OUTPUT CONTROL FOR STRESS PERIOD   84   TIME STEP    1

 WELLS WITH REDUCED PUMPING FOR STRESS PERIOD    84 TIME STEP     1
   LAY   ROW   COL         APPL.Q          ACT.Q        GW-HEAD       CELL-BOT
     1    77   213  -0.620891E+03  -0.229296E+03   0.152930E+03   0.148000E+03
     1    92    77  -0.620891E+03  -0.168158E+03  -0.847576E+02  -0.930000E+02
     1    94    77  -0.620891E+03  -0.128492E+03  -0.953781E+02  -0.102000E+03
     1    94    73  -0.620891E+03  -0.150743E+03  -0.675244E+02  -0.740000E+02


 SOLVING FOR HEAD 
                                                   Max.-Head-Change                        Max.-Flux-Residual
  Residual-Control   Outer-Iter.   Inner-Iter.     Column Row Layer    Max.-Head-Change    Column Row Layer    Max.-Flux-Residual            L2-New               L2-Old           Solver-Max-Delh
          0                 1           3           263   79     1       0.9436946138E+01     393  346    1       0.2888640249E+04      0.1429261215E+05      0.8733124945E+01      0.9436946138E+01
          0                 2           2           263   79     1      -0.8825809404E+00     263   79    1      -0.3064255048E+03      0.1460091974E+04      0.1429261215E+05     -0.8825809404E+00
          0                 3           2           263   79     1      -0.4489063243E-01     263   79    1      -0.1558438203E+02      0.7339587638E+02      0.1460091974E+04     -0.4489063243E-01

    ------------------------------------------------
       NWT REQUIRED            3 OUTER ITERATIONS 
       AND A TOTAL OF          7 INNER ITERATIONS.
    ------------------------------------------------

 NO OUTPUT CONTROL FOR STRESS PERIOD   84   TIME STEP    2

 WELLS WITH REDUCED PUMPING FOR STRESS PERIOD    84 TIME STEP     2
   LAY   ROW   COL         APPL.Q          ACT.Q        GW-HEAD       CELL-BOT
     1    77   213  -0.620891E+03  -0.242061E+03   0.153098E+03   0.148000E+03
     1    92    77  -0.620891E+03  -0.215516E+03  -0.834406E+02  -0.930000E+02
     1    94    77  -0.620891E+03  -0.131206E+03  -0.952988E+02  -0.102000E+03
     1    94    73  -0.620891E+03  -0.154671E+03  -0.674271E+02  -0.740000E+02


 SOLVING FOR HEAD 
                                                   Max.-Head-Change                        Max.-Flux-Residual
  Residual-Control   Outer-Iter.   Inner-Iter.     Column Row Layer    Max.-Head-Change    Column Row Layer    Max.-Flux-Residual            L2-New               L2-Old           Solver-Max-Delh
          0                 1           3           263   79     1       0.4383030063E+01     374  316    1       0.2500874365E+04      0.1064622210E+05      0.7339587638E+02      0.4383030063E+01
          0                 2           2           263   79     1      -0.4033010869E+00     374  316    1      -0.2502051310E+03      0.1075915244E+04      0.1064622210E+05     -0.4033010869E+00
          0                 3           2           263   79     1      -0.2037653875E-01     393  346    1      -0.1251144089E+02      0.5378478559E+02      0.1075915244E+04     -0.2037653875E-01

    ------------------------------------------------
       NWT REQUIRED            3 OUTER ITERATIONS 
       AND A TOTAL OF          7 INNER ITERATIONS.
    ------------------------------------------------

 NO OUTPUT CONTROL FOR STRESS PERIOD   84   TIME STEP    3

 WELLS WITH REDUCED PUMPING FOR STRESS PERIOD    84 TIME STEP     3
   LAY   ROW   COL         APPL.Q          ACT.Q        GW-HEAD       CELL-BOT
     1    77   213  -0.620891E+03  -0.254498E+03   0.153261E+03   0.148000E+03
     1    92    77  -0.620891E+03  -0.253344E+03  -0.824336E+02  -0.930000E+02
     1    94    77  -0.620891E+03  -0.133901E+03  -0.952206E+02  -0.102000E+03
     1    94    73  -0.620891E+03  -0.158563E+03  -0.673315E+02  -0.740000E+02


 SOLVING FOR HEAD 
                                                   Max.-Head-Change                        Max.-Flux-Residual
  Residual-Control   Outer-Iter.   Inner-Iter.     Column Row Layer    Max.-Head-Change    Column Row Layer    Max.-Flux-Residual            L2-New               L2-Old           Solver-Max-Delh
          0                 1           3           263   79     1       0.2192870789E+01     374  316    1       0.2243706270E+04      0.8821013547E+04      0.5378478559E+02      0.2192870789E+01
          0                 2           2           263   79     1      -0.1942385509E+00     374  316    1      -0.2244880281E+03      0.8854173954E+03      0.8821013547E+04     -0.1942385509E+00
          0                 3           2           263   79     1      -0.9763563371E-02     374  316    1      -0.1122527217E+02      0.4428254561E+02      0.8854173954E+03     -0.9763563371E-02

    ------------------------------------------------
       NWT REQUIRED            3 OUTER ITERATIONS 
       AND A TOTAL OF          7 INNER ITERATIONS.
    ------------------------------------------------

 NO OUTPUT CONTROL FOR STRESS PERIOD   84   TIME STEP    4

 WELLS WITH REDUCED PUMPING FOR STRESS PERIOD    84 TIME STEP     4
   LAY   ROW   COL         APPL.Q          ACT.Q        GW-HEAD       CELL-BOT
     1    77   213  -0.620891E+03  -0.266590E+03   0.153418E+03   0.148000E+03
     1    92    77  -0.620891E+03  -0.282714E+03  -0.816668E+02  -0.930000E+02
     1    94    77  -0.620891E+03  -0.136575E+03  -0.951435E+02  -0.102000E+03
     1    94    73  -0.620891E+03  -0.162418E+03  -0.672374E+02  -0.740000E+02


 SOLVING FOR HEAD 
                                                   Max.-Head-Change                        Max.-Flux-Residual
  Residual-Control   Outer-Iter.   Inner-Iter.     Column Row Layer    Max.-Head-Change    Column Row Layer    Max.-Flux-Residual            L2-New               L2-Old           Solver-Max-Delh
          0                 1           3           263   78     1       0.1267538322E+01     378  321    1       0.2027764712E+04      0.7665831924E+04      0.4428254561E+02      0.1267538322E+01
          0                 2           2           263   78     1      -0.1110271136E+00     378  321    1      -0.2029139423E+03      0.7682446215E+03      0.7665831924E+04     -0.1110271136E+00
          0                 3           2           263   78     1      -0.5567518429E-02     378  321    1      -0.1014671787E+02      0.3841859262E+02      0.7682446215E+03     -0.5567518429E-02

    ------------------------------------------------
       NWT REQUIRED            3 OUTER ITERATIONS 
       AND A TOTAL OF          7 INNER ITERATIONS.
    ------------------------------------------------

 NO OUTPUT CONTROL FOR STRESS PERIOD   84   TIME STEP    5

 WELLS WITH REDUCED PUMPING FOR STRESS PERIOD    84 TIME STEP     5
   LAY   ROW   COL         APPL.Q          ACT.Q        GW-HEAD       CELL-BOT
     1    77   213  -0.620891E+03  -0.278326E+03   0.153570E+03   0.148000E+03
     1    92    77  -0.620891E+03  -0.305201E+03  -0.810840E+02  -0.930000E+02
     1    94    77  -0.620891E+03  -0.139227E+03  -0.950675E+02  -0.102000E+03
     1    94    73  -0.620891E+03  -0.166234E+03  -0.671450E+02  -0.740000E+02


 SOLVING FOR HEAD 
                                                   Max.-Head-Change                        Max.-Flux-Residual
  Residual-Control   Outer-Iter.   Inner-Iter.     Column Row Layer    Max.-Head-Change    Column Row Layer    Max.-Flux-Residual            L2-New               L2-Old           Solver-Max-Delh
          0                 1           3           264   78     1       0.1036308085E+01     378  321    1       0.1854279643E+04      0.6845732168E+04      0.3841859262E+02      0.1036308085E+01
          0                 2           2           264   78     1      -0.9101568719E-01     378  321    1      -0.1855648766E+03      0.6861013125E+03      0.6845732168E+04     -0.9101568719E-01

    ------------------------------------------------
       NWT REQUIRED            2 OUTER ITERATIONS 
       AND A TOTAL OF          5 INNER ITERATIONS.
    ------------------------------------------------

 NO OUTPUT CONTROL FOR STRESS PERIOD   84   TIME STEP    6

 WELLS WITH REDUCED PUMPING FOR STRESS PERIOD    84 TIME STEP     6
   LAY   ROW   COL         APPL.Q          ACT.Q        GW-HEAD       CELL-BOT
     1    77   213  -0.620891E+03  -0.289752E+03   0.153718E+03   0.148000E+03
     1    92    77  -0.620891E+03  -0.322385E+03  -0.806392E+02  -0.930000E+02
     1    94    77  -0.620891E+03  -0.141870E+03  -0.949922E+02  -0.102000E+03
     1    94    73  -0.620891E+03  -0.170027E+03  -0.670536E+02  -0.740000E+02


 SOLVING FOR HEAD 
                                                   Max.-Head-Change                        Max.-Flux-Residual
  Residual-Control   Outer-Iter.   Inner-Iter.     Column Row Layer    Max.-Head-Change    Column Row Layer    Max.-Flux-Residual            L2-New               L2-Old           Solver-Max-Delh
          0                 1           3           264   78     1       0.8687424007E+00     378  321    1       0.1699360885E+04      0.6220447821E+04      0.3431092854E+02      0.8687424007E+00
          0                 2           2           264   78     1      -0.7619715740E-01     378  321    1      -0.1700681756E+03      0.6265372469E+03      0.6220447821E+04     -0.7619715740E-01

    ------------------------------------------------
       NWT REQUIRED            2 OUTER ITERATIONS 
       AND A TOTAL OF          5 INNER ITERATIONS.
    ------------------------------------------------

 NO OUTPUT CONTROL FOR STRESS PERIOD   84   TIME STEP    7

 WELLS WITH REDUCED PUMPING FOR STRESS PERIOD    84 TIME STEP     7
   LAY   ROW   COL         APPL.Q          ACT.Q        GW-HEAD       CELL-BOT
     1    77   213  -0.620891E+03  -0.300807E+03   0.153860E+03   0.148000E+03
     1    92    77  -0.620891E+03  -0.335394E+03  -0.803020E+02  -0.930000E+02
     1    94    77  -0.620891E+03  -0.144489E+03  -0.949180E+02  -0.102000E+03
     1    94    73  -0.620891E+03  -0.173779E+03  -0.669639E+02  -0.740000E+02


 SOLVING FOR HEAD 
                                                   Max.-Head-Change                        Max.-Flux-Residual
  Residual-Control   Outer-Iter.   Inner-Iter.     Column Row Layer    Max.-Head-Change    Column Row Layer    Max.-Flux-Residual            L2-New               L2-Old           Solver-Max-Delh
          0                 1           3           343  217     1       0.7256425686E+00     378  321    1       0.1561301117E+04      0.5729712335E+04      0.3133077210E+02      0.7256425686E+00
          0                 2           2            52   88     1      -0.6728995569E-01     378  321    1      -0.1562549881E+03      0.5754144955E+03      0.5729712335E+04     -0.6728995569E-01

    ------------------------------------------------
       NWT REQUIRED            2 OUTER ITERATIONS 
       AND A TOTAL OF          5 INNER ITERATIONS.
    ------------------------------------------------

 NO OUTPUT CONTROL FOR STRESS PERIOD   84   TIME STEP    8

 WELLS WITH REDUCED PUMPING FOR STRESS PERIOD    84 TIME STEP     8
   LAY   ROW   COL         APPL.Q          ACT.Q        GW-HEAD       CELL-BOT
     1    77   213  -0.620891E+03  -0.311489E+03   0.153997E+03   0.148000E+03
     1    92    77  -0.620891E+03  -0.345228E+03  -0.800464E+02  -0.930000E+02
     1    94    77  -0.620891E+03  -0.147086E+03  -0.948450E+02  -0.102000E+03
     1    94    73  -0.620891E+03  -0.177487E+03  -0.668756E+02  -0.740000E+02


 SOLVING FOR HEAD 
                                                   Max.-Head-Change                        Max.-Flux-Residual
  Residual-Control   Outer-Iter.   Inner-Iter.     Column Row Layer    Max.-Head-Change    Column Row Layer    Max.-Flux-Residual            L2-New               L2-Old           Solver-Max-Delh
          0                 1           3           343  217     1       0.6798412165E+00     378  321    1       0.1437887637E+04      0.5332547690E+04      0.2877268152E+02      0.6798412165E+00
          0                 2           2           343  217     1      -0.5912959748E-01     378  321    1      -0.1439052436E+03      0.5333556026E+03      0.5332547690E+04     -0.5912959748E-01

    ------------------------------------------------
       NWT REQUIRED            2 OUTER ITERATIONS 
       AND A TOTAL OF          5 INNER ITERATIONS.
    ------------------------------------------------

 NO OUTPUT CONTROL FOR STRESS PERIOD   84   TIME STEP    9

 WELLS WITH REDUCED PUMPING FOR STRESS PERIOD    84 TIME STEP     9
   LAY   ROW   COL         APPL.Q          ACT.Q        GW-HEAD       CELL-BOT
     1    77   213  -0.620891E+03  -0.321800E+03   0.154130E+03   0.148000E+03
     1    92    77  -0.620891E+03  -0.352654E+03  -0.798529E+02  -0.930000E+02
     1    94    77  -0.620891E+03  -0.149658E+03  -0.947729E+02  -0.102000E+03
     1    94    73  -0.620891E+03  -0.181152E+03  -0.667889E+02  -0.740000E+02


 SOLVING FOR HEAD 
                                                   Max.-Head-Change                        Max.-Flux-Residual
  Residual-Control   Outer-Iter.   Inner-Iter.     Column Row Layer    Max.-Head-Change    Column Row Layer    Max.-Flux-Residual            L2-New               L2-Old           Solver-Max-Delh
          0                 1           3           343  217     1       0.6316686152E+00     378  321    1       0.1327259666E+04      0.5005275768E+04      0.2666926059E+02      0.6316686152E+00
          0                 2           2           343  217     1      -0.5491572637E-01     378  321    1      -0.1328336156E+03      0.5006729830E+03      0.5005275768E+04     -0.5491572637E-01

    ------------------------------------------------
       NWT REQUIRED            2 OUTER ITERATIONS 
       AND A TOTAL OF          5 INNER ITERATIONS.
    ------------------------------------------------

 OUTPUT CONTROL FOR STRESS PERIOD   84   TIME STEP   10
    SAVE HEAD FOR ALL LAYERS

 WELLS WITH REDUCED PUMPING FOR STRESS PERIOD    84 TIME STEP    10
   LAY   ROW   COL         APPL.Q          ACT.Q        GW-HEAD       CELL-BOT
     1    77   213  -0.620891E+03  -0.331743E+03   0.154258E+03   0.148000E+03
     1    92    77  -0.620891E+03  -0.358257E+03  -0.797065E+02  -0.930000E+02
     1    94    77  -0.620891E+03  -0.152205E+03  -0.947020E+02  -0.102000E+03
     1    94    73  -0.620891E+03  -0.184772E+03  -0.667038E+02  -0.740000E+02


 HEAD WILL BE SAVED ON UNIT   51 AT END OF TIME STEP   10, STRESS PERIOD   84
1
  VOLUMETRIC BUDGET FOR ENTIRE MODEL AT END OF TIME STEP   10, STRESS PERIOD  84
  ------------------------------------------------------------------------------

     CUMULATIVE VOLUMES      L**3       RATES FOR THIS TIME STEP      L**3/T
     ------------------                 ------------------------

           IN:                                      IN:
           ---                                      ---
             STORAGE =   796842880.0000               STORAGE =      136386.8281
       CONSTANT HEAD =   130676576.0000         CONSTANT HEAD =       52176.3047
               WELLS =           0.0000                 WELLS =           0.0000
              DRAINS =           0.0000                DRAINS =           0.0000
                  ET =           0.0000                    ET =           0.0000
            RECHARGE =   447753088.0000              RECHARGE =      121581.4141

            TOTAL IN =  1375272576.0000              TOTAL IN =      310144.5312

          OUT:                                     OUT:
          ----                                     ----
             STORAGE =   235183680.0000               STORAGE =      101967.6094
       CONSTANT HEAD =           0.0000         CONSTANT HEAD =           0.0000
               WELLS =   757580288.0000                 WELLS =       98880.7812
              DRAINS =   270811520.0000                DRAINS =       78237.2891
                  ET =   109408168.0000                    ET =       30891.3711
            RECHARGE =      525047.1875              RECHARGE =           0.0000

           TOTAL OUT =  1373508736.0000             TOTAL OUT =      309977.0625

            IN - OUT =     1763840.0000              IN - OUT =         167.4688

 PERCENT DISCREPANCY =           0.13     PERCENT DISCREPANCY =           0.05






         TIME SUMMARY AT END OF TIME STEP   10 IN STRESS PERIOD   84
                    SECONDS     MINUTES      HOURS       DAYS        YEARS
                    -----------------------------------------------------------
   TIME STEP LENGTH 2.62656E+05  4377.6      72.960      3.0400     8.32307E-03
 STRESS PERIOD TIME 2.62656E+06  43776.      729.60      30.400     8.32307E-02
         TOTAL TIME 2.20632E+08 3.67721E+06  61287.      2553.6      6.9914    
1
1
                            STRESS PERIOD NO.   85, LENGTH =   30.40000    
                            -----------------------------------------------

                              NUMBER OF TIME STEPS =    10

                               MULTIPLIER FOR DELT =     1.000

                            INITIAL TIME STEP SIZE =   3.040000    

 WELL NO.  LAYER   ROW   COL   STRESS RATE         
 --------------------------------------------------
      1      1     69    225      -7258.    
      2      1     71    224       0.000    
      3      1     74    220       0.000    
      4      1     73    220       0.000    
      5      1     71    223       0.000    
      6      1     71    223       0.000    
      7      1     72    223       0.000    
      8      1     92    173       0.000    
      9      1     94    174       0.000    
     10      1     93    175       0.000    
     11      1    203    328       0.000    
     12      1    438    460      -566.9    
     13      1    436    461      -566.9    
     14      1    410    454      -566.9    
     15      1    433    460      -566.9    
     16      1    431    462      -566.9    
     17      1    417    459      -566.9    
     18      1    418    458      -566.9    
     19      1    414    455      -566.9    
     20      1    443    464      -566.9    
     21      1    379    425      -566.9    
     22      1    362    405      -566.9    
     23      1    361    405      -566.9    
     24      1    362    406      -566.9    
     25      1    363    408      -566.9    
     26      1    364    410      -566.9    
     27      1    369    418      -566.9    
     28      1    367    417      -566.9    
     29      1    365    415      -566.9    
     30      1    402    447      -566.9    
     31      1    400    446      -566.9    
     32      1    392    444      -566.9    
     33      1    391    441      -566.9    
     34      1    403    448      -566.9    
     35      1    405    447      -566.9    
     36      1    362    410      -566.9    
     37      1    362    411      -566.9    
     38      1    363    412      -566.9    
     39      1    375    421      -566.9    
     40      1    383    430      -566.9    
     41      1    397    445      -566.9    
     42      1    360    403      -566.9    
     43      1    350    401      -566.9    
     44      1    346    393      -655.9    
     45      1    333    387      -655.9    
     46      1    328    384      -655.9    
     47      1    326    383      -655.9    
     48      1    323    378      -655.9    
     49      1    321    378      -655.9    
     50      1    322    376      -655.9    
     51      1    316    374      -655.9    
     52      1    311    371      -655.9    
     53      1    307    369      -655.9    
     54      1    305    368      -655.9    
     55      1    303    368      -655.9    
     56      1    300    369      -655.9    
     57      1    293    364      -655.9    
     58      1    292    362      -655.9    
     59      1    278    350      -655.9    
     60      1    274    351      -655.9    
     61      1    273    350      -655.9    
     62      1    271    350      -655.9    
     63      1    267    348      -655.9    
     64      1    263    348      -655.9    
     65      1    263    348      -655.9    
     66      1    248    347      -655.9    
     67      1    243    342      -655.9    
     68      1    242    339      -655.9    
     69      1    238    341      -655.9    
     70      1    233    340      -655.9    
     71      1    232    340      -655.9    
     72      1    229    341      -655.9    
     73      1    227    341      -655.9    
     74      1    219    342      -655.9    
     75      1    219    336      -655.9    
     76      1    199    329      -655.9    
     77      1    191    332      -946.2    
     78      1    190    332      -946.2    
     79      1    130    310      -946.2    
     80      1    123    305      -946.2    
     81      1    104    289      -946.2    
     82      1     96    287      -1045.    
     83      1     95    284      -1045.    
     84      1     95    280      -1045.    
     85      1     93    276      -1045.    
     86      1     94    275      -1045.    
     87      1     90    277      -1045.    
     88      1     90    273      -1045.    
     89      1     86    271      -1045.    
     90      1     85    270      -1045.    
     91      1     84    265      -1045.    
     92      1     85    265      -1045.    
     93      1     84    264      -1045.    
     94      1     79    263      -1045.    
     95      1     79    263      -1045.    
     96      1     76    262      -1045.    
     97      1     73    257      -1045.    
     98      1     74    255      -1045.    
     99      1     71    255      -1045.    
    100      1     66    253      -1045.    
    101      1     68    252      -1045.    
    102      1     69    250      -1045.    
    103      1     65    248      -1045.    
    104      1     68    248      -1045.    
    105      1     69    247      -1045.    
    106      1     73    247      -1045.    
    107      1     64    246      -1045.    
    108      1     69    245      -1045.    
    109      1     72    245      -1045.    
    110      1     69    241      -1045.    
    111      1     73    238      -1045.    
    112      1     70    238      -1045.    
    113      1     76    263      -1045.    
    114      1     66    232      -728.1    
    115      1     69    229      -728.1    
    116      1     71    228      -728.1    
    117      1     69    227      -728.1    
    118      1     72    219      -728.1    
    119      1     72    218      -728.1    
    120      1     72    218      -728.1    
    121      1     73    217      -728.1    
    122      1     77    219      -728.1    
    123      1     78    219      -728.1    
    124      1     83    213      -728.1    
    125      1     77    213      -728.1    
    126      1     81    211      -728.1    
    127      1     81    210      -728.1    
    128      1     81    210      -728.1    
    129      1     82    208      -728.1    
    130      1     80    205      -728.1    
    131      1     86    202      -728.1    
    132      1     84    200      -728.1    
    133      1     89    200      -728.1    
    134      1     89    199      -728.1    
    135      1     88    199      -728.1    
    136      1     86    199      -728.1    
    137      1     85    199      -728.1    
    138      1     82    197      -728.1    
    139      1     86    197      -728.1    
    140      1     88    198      -728.1    
    141      1     90    192      -728.1    
    142      1     89    191      -728.1    
    143      1     84    192      -728.1    
    144      1     91    189      -728.1    
    145      1     92    185      -728.1    
    146      1     87    183      -728.1    
    147      1     92    182      -728.1    
    148      1     90    182      -728.1    
    149      1     88    179      -728.1    
    150      1     89    176      -728.1    
    151      1     92    172      -728.1    
    152      1     93    164      -728.1    
    153      1     94    162      -728.1    
    154      1    103    156      -728.1    
    155      1    103    156      -728.1    
    156      1     96    154      -728.1    
    157      1     97    153      -728.1    
    158      1    122    139      -728.1    
    159      1     92     77      -728.1    
    160      1     94     77      -728.1    
    161      1     94     73      -728.1    
    162      1     97    152      -728.1    
    163      1    118    337      -666.7    
    164      1    133    319      -2678.    
    165      1    131    320      -3951.    
    166      1    133    321      -2956.    
    167      1    161    329      -2141.    
    168      1    178    330      -551.0    
    169      1    163    330      -1122.    
    170      1    131    320      -2473.    
    171      1    129    315      -3937.    
    172      1    162    329      -1959.    
    173      1    131    311      -826.1    
    174      1    221    340      -1994.    
    175      1    220    340      -1034.    
    176      1    221    340      -667.7    
    177      1    137    322      -2082.    
    178      1    137    321      -1407.    
    179      1    185    329      -2012.    
    180      1    183    329      -1473.    
    181      1    175    329      -585.3    
    182      1     79    243      -1490.    
    183      1     77    245      -2414.    
    184      1    199    329      -1617.    
    185      1    198    330      -2514.    
    186      1    140    328      -972.1    
    187      1    143    327      -863.6    
    188      1    139    327      -1331.    

    188 WELLS

 REUSING NON-PARAMETER DRAINS FROM LAST STRESS PERIOD

   1061 DRAINS

 REUSING SURF FROM LAST STRESS PERIOD

 REUSING EVTR FROM LAST STRESS PERIOD

 REUSING EXDP FROM LAST STRESS PERIOD



                           RECHARGE
 READING ON UNIT   19 WITH FORMAT: (510E15.6)          

 SOLVING FOR HEAD 
                                                   Max.-Head-Change                        Max.-Flux-Residual
  Residual-Control   Outer-Iter.   Inner-Iter.     Column Row Layer    Max.-Head-Change    Column Row Layer    Max.-Flux-Residual            L2-New               L2-Old           Solver-Max-Delh
          0                 1           3           263   79     1      -0.3150701693E+01     348  263    1      -0.1145994383E+04      0.6288265349E+04      0.2503474787E+02     -0.3150701693E+01
          0                 2           2           263   79     1       0.2673362874E+00     348  263    1       0.1139092677E+03      0.6299876086E+03      0.6288265349E+04      0.2673362874E+00
          0                 3           2           263   79     1       0.1334197185E-01     348  263    1       0.5690367056E+01      0.3147262013E+02      0.6299876086E+03      0.1334197185E-01

    ------------------------------------------------
       NWT REQUIRED            3 OUTER ITERATIONS 
       AND A TOTAL OF          7 INNER ITERATIONS.
    ------------------------------------------------

 NO OUTPUT CONTROL FOR STRESS PERIOD   85   TIME STEP    1

 WELLS WITH REDUCED PUMPING FOR STRESS PERIOD    85 TIME STEP     1
   LAY   ROW   COL         APPL.Q          ACT.Q        GW-HEAD       CELL-BOT
     1    77   213  -0.728135E+03  -0.398317E+03   0.154359E+03   0.148000E+03
     1    92    77  -0.728135E+03  -0.409915E+03  -0.799341E+02  -0.930000E+02
     1    94    77  -0.728135E+03  -0.181039E+03  -0.946419E+02  -0.102000E+03
     1    94    73  -0.728135E+03  -0.220278E+03  -0.666320E+02  -0.740000E+02


 SOLVING FOR HEAD 
                                                   Max.-Head-Change                        Max.-Flux-Residual
  Residual-Control   Outer-Iter.   Inner-Iter.     Column Row Layer    Max.-Head-Change    Column Row Layer    Max.-Flux-Residual            L2-New               L2-Old           Solver-Max-Delh
          0                 1           3           263   79     1      -0.1290327663E+01     139  122    1       0.6810316603E+03      0.3910819346E+04      0.3147262013E+02     -0.1290327663E+01
          0                 2           2           263   79     1       0.1109422509E+00     139  122    1      -0.6811380907E+02      0.3903083564E+03      0.3910819346E+04      0.1109422509E+00
          0                 3           2           263   79     1       0.5541401851E-02     139  122    1      -0.3405769353E+01      0.1951447139E+02      0.3903083564E+03      0.5541401851E-02

    ------------------------------------------------
       NWT REQUIRED            3 OUTER ITERATIONS 
       AND A TOTAL OF          7 INNER ITERATIONS.
    ------------------------------------------------

 NO OUTPUT CONTROL FOR STRESS PERIOD   85   TIME STEP    2

 WELLS WITH REDUCED PUMPING FOR STRESS PERIOD    85 TIME STEP     2
   LAY   ROW   COL         APPL.Q          ACT.Q        GW-HEAD       CELL-BOT
     1    77   213  -0.728135E+03  -0.407206E+03   0.154457E+03   0.148000E+03
     1    92    77  -0.728135E+03  -0.402325E+03  -0.801026E+02  -0.930000E+02
     1    94    77  -0.728135E+03  -0.183550E+03  -0.945827E+02  -0.102000E+03
     1    94    73  -0.728135E+03  -0.223811E+03  -0.665618E+02  -0.740000E+02


 SOLVING FOR HEAD 
                                                   Max.-Head-Change                        Max.-Flux-Residual
  Residual-Control   Outer-Iter.   Inner-Iter.     Column Row Layer    Max.-Head-Change    Column Row Layer    Max.-Flux-Residual            L2-New               L2-Old           Solver-Max-Delh
          0                 1           3           263   79     1      -0.5362110644E+00     139  122    1       0.6611658268E+03      0.3561328019E+04      0.1951447139E+02     -0.5362110644E+00
          0                 2           2           263   79     1       0.4626377062E-01     139  122    1      -0.6612678402E+02      0.3562132200E+03      0.3561328019E+04      0.4626377062E-01

    ------------------------------------------------
       NWT REQUIRED            2 OUTER ITERATIONS 
       AND A TOTAL OF          5 INNER ITERATIONS.
    ------------------------------------------------

 NO OUTPUT CONTROL FOR STRESS PERIOD   85   TIME STEP    3

 WELLS WITH REDUCED PUMPING FOR STRESS PERIOD    85 TIME STEP     3
   LAY   ROW   COL         APPL.Q          ACT.Q        GW-HEAD       CELL-BOT
     1    77   213  -0.728135E+03  -0.415763E+03   0.154552E+03   0.148000E+03
     1    92    77  -0.728135E+03  -0.396659E+03  -0.802282E+02  -0.930000E+02
     1    94    77  -0.728135E+03  -0.186039E+03  -0.945244E+02  -0.102000E+03
     1    94    73  -0.728135E+03  -0.227303E+03  -0.664926E+02  -0.740000E+02


 SOLVING FOR HEAD 
                                                   Max.-Head-Change                        Max.-Flux-Residual
  Residual-Control   Outer-Iter.   Inner-Iter.     Column Row Layer    Max.-Head-Change    Column Row Layer    Max.-Flux-Residual            L2-New               L2-Old           Solver-Max-Delh
          0                 1           3           343  217     1       0.2869419827E+00     197   82    1       0.6459699904E+03      0.3403128823E+04      0.3562132200E+03      0.2869419827E+00
          0                 2           2           343  217     1      -0.2486290220E-01     197   82    1      -0.6460546236E+02      0.3403351251E+03      0.3403128823E+04     -0.2486290220E-01

    ------------------------------------------------
       NWT REQUIRED            2 OUTER ITERATIONS 
       AND A TOTAL OF          5 INNER ITERATIONS.
    ------------------------------------------------

 NO OUTPUT CONTROL FOR STRESS PERIOD   85   TIME STEP    4

 WELLS WITH REDUCED PUMPING FOR STRESS PERIOD    85 TIME STEP     4
   LAY   ROW   COL         APPL.Q          ACT.Q        GW-HEAD       CELL-BOT
     1    77   213  -0.728135E+03  -0.423957E+03   0.154643E+03   0.148000E+03
     1    92    77  -0.728135E+03  -0.392448E+03  -0.803214E+02  -0.930000E+02
     1    94    77  -0.728135E+03  -0.188495E+03  -0.944670E+02  -0.102000E+03
     1    94    73  -0.728135E+03  -0.230735E+03  -0.664248E+02  -0.740000E+02


 SOLVING FOR HEAD 
                                                   Max.-Head-Change                        Max.-Flux-Residual
  Residual-Control   Outer-Iter.   Inner-Iter.     Column Row Layer    Max.-Head-Change    Column Row Layer    Max.-Flux-Residual            L2-New               L2-Old           Solver-Max-Delh
          0                 1           3           197   82     1       0.2610577138E+00     197   82    1       0.6358486449E+03      0.3299264594E+04      0.3403351251E+03      0.2610577138E+00
          0                 2           2           197   82     1      -0.2254828844E-01     197   82    1      -0.6359311235E+02      0.3299359133E+03      0.3299264594E+04     -0.2254828844E-01

    ------------------------------------------------
       NWT REQUIRED            2 OUTER ITERATIONS 
       AND A TOTAL OF          5 INNER ITERATIONS.
    ------------------------------------------------

 NO OUTPUT CONTROL FOR STRESS PERIOD   85   TIME STEP    5

 WELLS WITH REDUCED PUMPING FOR STRESS PERIOD    85 TIME STEP     5
   LAY   ROW   COL         APPL.Q          ACT.Q        GW-HEAD       CELL-BOT
     1    77   213  -0.728135E+03  -0.431802E+03   0.154730E+03   0.148000E+03
     1    92    77  -0.728135E+03  -0.389307E+03  -0.803909E+02  -0.930000E+02
     1    94    77  -0.728135E+03  -0.190917E+03  -0.944107E+02  -0.102000E+03
     1    94    73  -0.728135E+03  -0.234109E+03  -0.663585E+02  -0.740000E+02


 SOLVING FOR HEAD 
                                                   Max.-Head-Change                        Max.-Flux-Residual
  Residual-Control   Outer-Iter.   Inner-Iter.     Column Row Layer    Max.-Head-Change    Column Row Layer    Max.-Flux-Residual            L2-New               L2-Old           Solver-Max-Delh
          0                 1           3           197   82     1       0.2569773459E+00     197   82    1       0.6259008562E+03      0.3217950100E+04      0.3299359133E+03      0.2569773459E+00
          0                 2           2           197   82     1      -0.2219583304E-01     197   82    1      -0.6259812787E+02      0.3218267206E+03      0.3217950100E+04     -0.2219583304E-01

    ------------------------------------------------
       NWT REQUIRED            2 OUTER ITERATIONS 
       AND A TOTAL OF          5 INNER ITERATIONS.
    ------------------------------------------------

 NO OUTPUT CONTROL FOR STRESS PERIOD   85   TIME STEP    6

 WELLS WITH REDUCED PUMPING FOR STRESS PERIOD    85 TIME STEP     6
   LAY   ROW   COL         APPL.Q          ACT.Q        GW-HEAD       CELL-BOT
     1    77   213  -0.728135E+03  -0.439311E+03   0.154813E+03   0.148000E+03
     1    92    77  -0.728135E+03  -0.386954E+03  -0.804429E+02  -0.930000E+02
     1    94    77  -0.728135E+03  -0.193305E+03  -0.943553E+02  -0.102000E+03
     1    94    73  -0.728135E+03  -0.237424E+03  -0.662935E+02  -0.740000E+02


 SOLVING FOR HEAD 
                                                   Max.-Head-Change                        Max.-Flux-Residual
  Residual-Control   Outer-Iter.   Inner-Iter.     Column Row Layer    Max.-Head-Change    Column Row Layer    Max.-Flux-Residual            L2-New               L2-Old           Solver-Max-Delh
          0                 1           3           197   82     1       0.2529680291E+00     197   82    1       0.6161253320E+03      0.3148922489E+04      0.3218267206E+03      0.2529680291E+00
          0                 2           2           197   82     1      -0.2184951607E-01     197   82    1      -0.6162037718E+02      0.3148988886E+03      0.3148922489E+04     -0.2184951607E-01

    ------------------------------------------------
       NWT REQUIRED            2 OUTER ITERATIONS 
       AND A TOTAL OF          5 INNER ITERATIONS.
    ------------------------------------------------

 NO OUTPUT CONTROL FOR STRESS PERIOD   85   TIME STEP    7

 WELLS WITH REDUCED PUMPING FOR STRESS PERIOD    85 TIME STEP     7
   LAY   ROW   COL         APPL.Q          ACT.Q        GW-HEAD       CELL-BOT
     1    77   213  -0.728135E+03  -0.446497E+03   0.154894E+03   0.148000E+03
     1    92    77  -0.728135E+03  -0.385179E+03  -0.804822E+02  -0.930000E+02
     1    94    77  -0.728135E+03  -0.195659E+03  -0.943010E+02  -0.102000E+03
     1    94    73  -0.728135E+03  -0.240680E+03  -0.662299E+02  -0.740000E+02


 SOLVING FOR HEAD 
                                                   Max.-Head-Change                        Max.-Flux-Residual
  Residual-Control   Outer-Iter.   Inner-Iter.     Column Row Layer    Max.-Head-Change    Column Row Layer    Max.-Flux-Residual            L2-New               L2-Old           Solver-Max-Delh
          0                 1           3           197   82     1       0.2490286010E+00     197   82    1       0.6065197044E+03      0.3087959297E+04      0.3148988886E+03      0.2490286010E+00
          0                 2           2           197   82     1      -0.2150923676E-01     197   82    1      -0.6065962230E+02      0.3088013723E+03      0.3087959297E+04     -0.2150923676E-01

    ------------------------------------------------
       NWT REQUIRED            2 OUTER ITERATIONS 
       AND A TOTAL OF          5 INNER ITERATIONS.
    ------------------------------------------------

 NO OUTPUT CONTROL FOR STRESS PERIOD   85   TIME STEP    8

 WELLS WITH REDUCED PUMPING FOR STRESS PERIOD    85 TIME STEP     8
   LAY   ROW   COL         APPL.Q          ACT.Q        GW-HEAD       CELL-BOT
     1    77   213  -0.728135E+03  -0.453372E+03   0.154971E+03   0.148000E+03
     1    92    77  -0.728135E+03  -0.383828E+03  -0.805120E+02  -0.930000E+02
     1    94    77  -0.728135E+03  -0.197980E+03  -0.942475E+02  -0.102000E+03
     1    94    73  -0.728135E+03  -0.243879E+03  -0.661676E+02  -0.740000E+02


 SOLVING FOR HEAD 
                                                   Max.-Head-Change                        Max.-Flux-Residual
  Residual-Control   Outer-Iter.   Inner-Iter.     Column Row Layer    Max.-Head-Change    Column Row Layer    Max.-Flux-Residual            L2-New               L2-Old           Solver-Max-Delh
          0                 1           3           197   82     1       0.2451579469E+00     197   82    1       0.5970814788E+03      0.3033001059E+04      0.3088013723E+03      0.2451579469E+00
          0                 2           2           197   82     1      -0.2117489864E-01     197   82    1      -0.5971561314E+02      0.3033282360E+03      0.3033001059E+04     -0.2117489864E-01

    ------------------------------------------------
       NWT REQUIRED            2 OUTER ITERATIONS 
       AND A TOTAL OF          5 INNER ITERATIONS.
    ------------------------------------------------

 NO OUTPUT CONTROL FOR STRESS PERIOD   85   TIME STEP    9

 WELLS WITH REDUCED PUMPING FOR STRESS PERIOD    85 TIME STEP     9
   LAY   ROW   COL         APPL.Q          ACT.Q        GW-HEAD       CELL-BOT
     1    77   213  -0.728135E+03  -0.459949E+03   0.155045E+03   0.148000E+03
     1    92    77  -0.728135E+03  -0.382790E+03  -0.805350E+02  -0.930000E+02
     1    94    77  -0.728135E+03  -0.200267E+03  -0.941951E+02  -0.102000E+03
     1    94    73  -0.728135E+03  -0.247019E+03  -0.661065E+02  -0.740000E+02


 SOLVING FOR HEAD 
                                                   Max.-Head-Change                        Max.-Flux-Residual
  Residual-Control   Outer-Iter.   Inner-Iter.     Column Row Layer    Max.-Head-Change    Column Row Layer    Max.-Flux-Residual            L2-New               L2-Old           Solver-Max-Delh
          0                 1           3           197   82     1       0.2413548132E+00     197   82    1       0.5878077259E+03      0.2982818893E+04      0.3033282360E+03      0.2413548132E+00
          0                 2           2            51   87     1      -0.2178587728E-01     197   82    1      -0.5878805637E+02      0.2985763424E+03      0.2982818893E+04     -0.2178587728E-01

    ------------------------------------------------
       NWT REQUIRED            2 OUTER ITERATIONS 
       AND A TOTAL OF          5 INNER ITERATIONS.
    ------------------------------------------------

 OUTPUT CONTROL FOR STRESS PERIOD   85   TIME STEP   10
    SAVE HEAD FOR ALL LAYERS

 WELLS WITH REDUCED PUMPING FOR STRESS PERIOD    85 TIME STEP    10
   LAY   ROW   COL         APPL.Q          ACT.Q        GW-HEAD       CELL-BOT
     1    77   213  -0.728135E+03  -0.466240E+03   0.155117E+03   0.148000E+03
     1    92    77  -0.728135E+03  -0.381981E+03  -0.805528E+02  -0.930000E+02
     1    94    77  -0.728135E+03  -0.202520E+03  -0.941435E+02  -0.102000E+03
     1    94    73  -0.728135E+03  -0.250103E+03  -0.660468E+02  -0.740000E+02


 HEAD WILL BE SAVED ON UNIT   51 AT END OF TIME STEP   10, STRESS PERIOD   85
1
  VOLUMETRIC BUDGET FOR ENTIRE MODEL AT END OF TIME STEP   10, STRESS PERIOD  85
  ------------------------------------------------------------------------------

     CUMULATIVE VOLUMES      L**3       RATES FOR THIS TIME STEP      L**3/T
     ------------------                 ------------------------

           IN:                                      IN:
           ---                                      ---
             STORAGE =   801077376.0000               STORAGE =      132834.7188
       CONSTANT HEAD =   132262752.0000         CONSTANT HEAD =       52177.8086
               WELLS =           0.0000                 WELLS =           0.0000
              DRAINS =           0.0000                DRAINS =           0.0000
                  ET =           0.0000                    ET =           0.0000
            RECHARGE =   451319168.0000              RECHARGE =      117306.5781

            TOTAL IN =  1384659328.0000              TOTAL IN =      302319.1250

          OUT:                                     OUT:
          ----                                     ----
             STORAGE =   236608960.0000               STORAGE =       39805.1367
       CONSTANT HEAD =           0.0000         CONSTANT HEAD =           0.0000
               WELLS =   762194048.0000                 WELLS =      151813.4219
              DRAINS =   273212928.0000                DRAINS =       79476.1875
                  ET =   110343344.0000                    ET =       30762.7402
            RECHARGE =      525047.1875              RECHARGE =           0.0000

           TOTAL OUT =  1382884224.0000             TOTAL OUT =      301857.5000

            IN - OUT =     1775104.0000              IN - OUT =         461.6250

 PERCENT DISCREPANCY =           0.13     PERCENT DISCREPANCY =           0.15






         TIME SUMMARY AT END OF TIME STEP   10 IN STRESS PERIOD   85
                    SECONDS     MINUTES      HOURS       DAYS        YEARS
                    -----------------------------------------------------------
   TIME STEP LENGTH 2.62656E+05  4377.6      72.960      3.0400     8.32307E-03
 STRESS PERIOD TIME 2.62656E+06  43776.      729.60      30.400     8.32307E-02
         TOTAL TIME 2.23259E+08 3.72098E+06  62016.      2584.0      7.0747    
1
1
                            STRESS PERIOD NO.   86, LENGTH =   30.40000    
                            -----------------------------------------------

                              NUMBER OF TIME STEPS =    10

                               MULTIPLIER FOR DELT =     1.000

                            INITIAL TIME STEP SIZE =   3.040000    

 WELL NO.  LAYER   ROW   COL   STRESS RATE         
 --------------------------------------------------
      1      1     69    225      -7344.    
      2      1     71    224       0.000    
      3      1     74    220       0.000    
      4      1     73    220       0.000    
      5      1     71    223       0.000    
      6      1     71    223       0.000    
      7      1     72    223       0.000    
      8      1     92    173       0.000    
      9      1     94    174       0.000    
     10      1     93    175       0.000    
     11      1    203    328       0.000    
     12      1    438    460      -2989.    
     13      1    436    461      -2989.    
     14      1    410    454      -2989.    
     15      1    433    460      -2989.    
     16      1    431    462      -2989.    
     17      1    417    459      -2989.    
     18      1    418    458      -2989.    
     19      1    414    455      -2989.    
     20      1    443    464      -2989.    
     21      1    379    425      -2989.    
     22      1    362    405      -2989.    
     23      1    361    405      -2989.    
     24      1    362    406      -2989.    
     25      1    363    408      -2989.    
     26      1    364    410      -2989.    
     27      1    369    418      -2989.    
     28      1    367    417      -2989.    
     29      1    365    415      -2989.    
     30      1    402    447      -2989.    
     31      1    400    446      -2989.    
     32      1    392    444      -2989.    
     33      1    391    441      -2989.    
     34      1    403    448      -2989.    
     35      1    405    447      -2989.    
     36      1    362    410      -2989.    
     37      1    362    411      -2989.    
     38      1    363    412      -2989.    
     39      1    375    421      -2989.    
     40      1    383    430      -2989.    
     41      1    397    445      -2989.    
     42      1    360    403      -2989.    
     43      1    350    401      -2989.    
     44      1    346    393      -4133.    
     45      1    333    387      -4133.    
     46      1    328    384      -4133.    
     47      1    326    383      -4133.    
     48      1    323    378      -4133.    
     49      1    321    378      -4133.    
     50      1    322    376      -4133.    
     51      1    316    374      -4133.    
     52      1    311    371      -4133.    
     53      1    307    369      -4133.    
     54      1    305    368      -4133.    
     55      1    303    368      -4133.    
     56      1    300    369      -4133.    
     57      1    293    364      -4133.    
     58      1    292    362      -4133.    
     59      1    278    350      -4133.    
     60      1    274    351      -4133.    
     61      1    273    350      -4133.    
     62      1    271    350      -4133.    
     63      1    267    348      -4133.    
     64      1    263    348      -4133.    
     65      1    263    348      -4133.    
     66      1    248    347      -4133.    
     67      1    243    342      -4133.    
     68      1    242    339      -4133.    
     69      1    238    341      -4133.    
     70      1    233    340      -4133.    
     71      1    232    340      -4133.    
     72      1    229    341      -4133.    
     73      1    227    341      -4133.    
     74      1    219    342      -4133.    
     75      1    219    336      -4133.    
     76      1    199    329      -4133.    
     77      1    191    332      -5038.    
     78      1    190    332      -5038.    
     79      1    130    310      -5038.    
     80      1    123    305      -5038.    
     81      1    104    289      -5038.    
     82      1     96    287      -4290.    
     83      1     95    284      -4290.    
     84      1     95    280      -4290.    
     85      1     93    276      -4290.    
     86      1     94    275      -4290.    
     87      1     90    277      -4290.    
     88      1     90    273      -4290.    
     89      1     86    271      -4290.    
     90      1     85    270      -4290.    
     91      1     84    265      -4290.    
     92      1     85    265      -4290.    
     93      1     84    264      -4290.    
     94      1     79    263      -4290.    
     95      1     79    263      -4290.    
     96      1     76    262      -4290.    
     97      1     73    257      -4290.    
     98      1     74    255      -4290.    
     99      1     71    255      -4290.    
    100      1     66    253      -4290.    
    101      1     68    252      -4290.    
    102      1     69    250      -4290.    
    103      1     65    248      -4290.    
    104      1     68    248      -4290.    
    105      1     69    247      -4290.    
    106      1     73    247      -4290.    
    107      1     64    246      -4290.    
    108      1     69    245      -4290.    
    109      1     72    245      -4290.    
    110      1     69    241      -4290.    
    111      1     73    238      -4290.    
    112      1     70    238      -4290.    
    113      1     76    263      -4290.    
    114      1     66    232      -2310.    
    115      1     69    229      -2310.    
    116      1     71    228      -2310.    
    117      1     69    227      -2310.    
    118      1     72    219      -2310.    
    119      1     72    218      -2310.    
    120      1     72    218      -2310.    
    121      1     73    217      -2310.    
    122      1     77    219      -2310.    
    123      1     78    219      -2310.    
    124      1     83    213      -2310.    
    125      1     77    213      -2310.    
    126      1     81    211      -2310.    
    127      1     81    210      -2310.    
    128      1     81    210      -2310.    
    129      1     82    208      -2310.    
    130      1     80    205      -2310.    
    131      1     86    202      -2310.    
    132      1     84    200      -2310.    
    133      1     89    200      -2310.    
    134      1     89    199      -2310.    
    135      1     88    199      -2310.    
    136      1     86    199      -2310.    
    137      1     85    199      -2310.    
    138      1     82    197      -2310.    
    139      1     86    197      -2310.    
    140      1     88    198      -2310.    
    141      1     90    192      -2310.    
    142      1     89    191      -2310.    
    143      1     84    192      -2310.    
    144      1     91    189      -2310.    
    145      1     92    185      -2310.    
    146      1     87    183      -2310.    
    147      1     92    182      -2310.    
    148      1     90    182      -2310.    
    149      1     88    179      -2310.    
    150      1     89    176      -2310.    
    151      1     92    172      -2310.    
    152      1     93    164      -2310.    
    153      1     94    162      -2310.    
    154      1    103    156      -2310.    
    155      1    103    156      -2310.    
    156      1     96    154      -2310.    
    157      1     97    153      -2310.    
    158      1    122    139      -2310.    
    159      1     92     77      -2310.    
    160      1     94     77      -2310.    
    161      1     94     73      -2310.    
    162      1     97    152      -2310.    
    163      1    118    337      -666.7    
    164      1    133    319      -2678.    
    165      1    131    320      -3951.    
    166      1    133    321      -2956.    
    167      1    161    329      -2141.    
    168      1    178    330      -551.0    
    169      1    163    330      -1122.    
    170      1    131    320      -2473.    
    171      1    129    315      -3937.    
    172      1    162    329      -1959.    
    173      1    131    311      -826.1    
    174      1    221    340      -1994.    
    175      1    220    340      -1034.    
    176      1    221    340      -667.7    
    177      1    137    322      -2082.    
    178      1    137    321      -1407.    
    179      1    185    329      -2012.    
    180      1    183    329      -1473.    
    181      1    175    329      -585.3    
    182      1     79    243      -1490.    
    183      1     77    245      -2414.    
    184      1    199    329      -1617.    
    185      1    198    330      -2514.    
    186      1    140    328      -972.1    
    187      1    143    327      -863.6    
    188      1    139    327      -1331.    

    188 WELLS

 REUSING NON-PARAMETER DRAINS FROM LAST STRESS PERIOD

   1061 DRAINS

 REUSING SURF FROM LAST STRESS PERIOD

 REUSING EVTR FROM LAST STRESS PERIOD

 REUSING EXDP FROM LAST STRESS PERIOD



                           RECHARGE
 READING ON UNIT   19 WITH FORMAT: (510E15.6)          

 SOLVING FOR HEAD 
                                                   Max.-Head-Change                        Max.-Flux-Residual
  Residual-Control   Outer-Iter.   Inner-Iter.     Column Row Layer    Max.-Head-Change    Column Row Layer    Max.-Flux-Residual            L2-New               L2-Old           Solver-Max-Delh
          0                 1           3           263   79     1      -0.2042740195E+02     348  263    1      -0.6924317552E+04      0.3181500807E+05      0.2985763424E+03     -0.2042740195E+02
          0                 2           2           263   79     1       0.1528984771E+01     238   70    1       0.8661355637E+03      0.3254559931E+04      0.3181500807E+05      0.1528984771E+01
          0                 3           2           263   79     1       0.7448677231E-01     238   70    1       0.3975567959E+02      0.1614754097E+03      0.3254559931E+04      0.7448677231E-01

    ------------------------------------------------
       NWT REQUIRED            3 OUTER ITERATIONS 
       AND A TOTAL OF          7 INNER ITERATIONS.
    ------------------------------------------------

 NO OUTPUT CONTROL FOR STRESS PERIOD   86   TIME STEP    1

 WELLS WITH REDUCED PUMPING FOR STRESS PERIOD    86 TIME STEP     1
   LAY   ROW   COL         APPL.Q          ACT.Q        GW-HEAD       CELL-BOT
     1    77   213  -0.230952E+04  -0.140148E+04   0.154842E+03   0.148000E+03
     1    92    77  -0.230952E+04  -0.797449E+03  -0.834712E+02  -0.930000E+02
     1    94    77  -0.230952E+04  -0.628222E+03  -0.942456E+02  -0.102000E+03
     1    94    73  -0.230952E+04  -0.771963E+03  -0.661772E+02  -0.740000E+02


 SOLVING FOR HEAD 
                                                   Max.-Head-Change                        Max.-Flux-Residual
  Residual-Control   Outer-Iter.   Inner-Iter.     Column Row Layer    Max.-Head-Change    Column Row Layer    Max.-Flux-Residual            L2-New               L2-Old           Solver-Max-Delh
          0                 1           3           263   79     1      -0.9126439145E+01     374  316    1      -0.2935264933E+04      0.1530089211E+05      0.1614754097E+03     -0.9126439145E+01
          0                 2           3           263   79     1       0.7206324381E+00     374  316    1       0.2932843840E+03      0.1517019855E+04      0.1530089211E+05      0.7206324381E+00
          0                 3           2           263   79     1       0.3543582053E-01     374  316    1       0.1466240743E+02      0.7576276234E+02      0.1517019855E+04      0.3543582053E-01

    ------------------------------------------------
       NWT REQUIRED            3 OUTER ITERATIONS 
       AND A TOTAL OF          8 INNER ITERATIONS.
    ------------------------------------------------

 NO OUTPUT CONTROL FOR STRESS PERIOD   86   TIME STEP    2

 WELLS WITH REDUCED PUMPING FOR STRESS PERIOD    86 TIME STEP     2
   LAY   ROW   COL         APPL.Q          ACT.Q        GW-HEAD       CELL-BOT
     1    77   213  -0.230952E+04  -0.133105E+04   0.154595E+03   0.148000E+03
     1    92    77  -0.230952E+04  -0.605443E+03  -0.849133E+02  -0.930000E+02
     1    94    77  -0.230952E+04  -0.614874E+03  -0.943426E+02  -0.102000E+03
     1    94    73  -0.230952E+04  -0.752017E+03  -0.663000E+02  -0.740000E+02


 SOLVING FOR HEAD 
                                                   Max.-Head-Change                        Max.-Flux-Residual
  Residual-Control   Outer-Iter.   Inner-Iter.     Column Row Layer    Max.-Head-Change    Column Row Layer    Max.-Flux-Residual            L2-New               L2-Old           Solver-Max-Delh
          0                 1           3           263   79     1      -0.4450867469E+01     374  316    1      -0.2639843257E+04      0.1211489970E+05      0.7576276234E+02     -0.4450867469E+01
          0                 2           2           263   79     1       0.3642045085E+00     374  316    1       0.2637466154E+03      0.1210576612E+04      0.1211489970E+05      0.3642045085E+00
          0                 3           2           263   79     1       0.1802486568E-01     374  316    1       0.1318555180E+02      0.6049897287E+02      0.1210576612E+04      0.1802486568E-01

    ------------------------------------------------
       NWT REQUIRED            3 OUTER ITERATIONS 
       AND A TOTAL OF          7 INNER ITERATIONS.
    ------------------------------------------------

 NO OUTPUT CONTROL FOR STRESS PERIOD   86   TIME STEP    3

 WELLS WITH REDUCED PUMPING FOR STRESS PERIOD    86 TIME STEP     3
   LAY   ROW   COL         APPL.Q          ACT.Q        GW-HEAD       CELL-BOT
     1    77   213  -0.230952E+04  -0.126729E+04   0.154373E+03   0.148000E+03
     1    92    77  -0.230952E+04  -0.513653E+03  -0.856470E+02  -0.930000E+02
     1    94    77  -0.230952E+04  -0.602267E+03  -0.944348E+02  -0.102000E+03
     1    94    73  -0.230952E+04  -0.733349E+03  -0.664156E+02  -0.740000E+02


 SOLVING FOR HEAD 
                                                   Max.-Head-Change                        Max.-Flux-Residual
  Residual-Control   Outer-Iter.   Inner-Iter.     Column Row Layer    Max.-Head-Change    Column Row Layer    Max.-Flux-Residual            L2-New               L2-Old           Solver-Max-Delh
          0                 1           3           263   79     1      -0.2411447328E+01     374  316    1      -0.2380340110E+04      0.1059826695E+05      0.6049897287E+02     -0.2411447328E+01
          0                 2           2           263   79     1       0.2015103061E+00     374  316    1       0.2378097584E+03      0.1062481241E+04      0.1059826695E+05      0.2015103061E+00
          0                 3           2           263   79     1       0.1001166500E-01     374  316    1       0.1188881208E+02      0.5311107053E+02      0.1062481241E+04      0.1001166500E-01

    ------------------------------------------------
       NWT REQUIRED            3 OUTER ITERATIONS 
       AND A TOTAL OF          7 INNER ITERATIONS.
    ------------------------------------------------

 NO OUTPUT CONTROL FOR STRESS PERIOD   86   TIME STEP    4

 WELLS WITH REDUCED PUMPING FOR STRESS PERIOD    86 TIME STEP     4
   LAY   ROW   COL         APPL.Q          ACT.Q        GW-HEAD       CELL-BOT
     1    77   213  -0.230952E+04  -0.120977E+04   0.154174E+03   0.148000E+03
     1    92    77  -0.230952E+04  -0.468000E+03  -0.860272E+02  -0.930000E+02
     1    94    77  -0.230952E+04  -0.590355E+03  -0.945224E+02  -0.102000E+03
     1    94    73  -0.230952E+04  -0.715872E+03  -0.665244E+02  -0.740000E+02


 SOLVING FOR HEAD 
                                                   Max.-Head-Change                        Max.-Flux-Residual
  Residual-Control   Outer-Iter.   Inner-Iter.     Column Row Layer    Max.-Head-Change    Column Row Layer    Max.-Flux-Residual            L2-New               L2-Old           Solver-Max-Delh
          0                 1           3           263   79     1      -0.1465021438E+01     374  316    1      -0.2151625012E+04      0.9678170771E+04      0.5311107053E+02     -0.1465021438E+01
          0                 2           2           263   79     1       0.1239058099E+00     374  316    1       0.2149558345E+03      0.9671762828E+03      0.9678170771E+04      0.1239058099E+00
          0                 3           2           263   79     1       0.6170001909E-02     374  316    1       0.1074624845E+02      0.4835151054E+02      0.9671762828E+03      0.6170001909E-02

    ------------------------------------------------
       NWT REQUIRED            3 OUTER ITERATIONS 
       AND A TOTAL OF          7 INNER ITERATIONS.
    ------------------------------------------------

 NO OUTPUT CONTROL FOR STRESS PERIOD   86   TIME STEP    5

 WELLS WITH REDUCED PUMPING FOR STRESS PERIOD    86 TIME STEP     5
   LAY   ROW   COL         APPL.Q          ACT.Q        GW-HEAD       CELL-BOT
     1    77   213  -0.230952E+04  -0.115804E+04   0.153995E+03   0.148000E+03
     1    92    77  -0.230952E+04  -0.444671E+03  -0.862263E+02  -0.930000E+02
     1    94    77  -0.230952E+04  -0.579096E+03  -0.946057E+02  -0.102000E+03
     1    94    73  -0.230952E+04  -0.699502E+03  -0.666269E+02  -0.740000E+02


 SOLVING FOR HEAD 
                                                   Max.-Head-Change                        Max.-Flux-Residual
  Residual-Control   Outer-Iter.   Inner-Iter.     Column Row Layer    Max.-Head-Change    Column Row Layer    Max.-Flux-Residual            L2-New               L2-Old           Solver-Max-Delh
          0                 1           3           264   78     1      -0.9972338733E+00     378  321    1      -0.1974541809E+04      0.9050309085E+04      0.4835151054E+02     -0.9972338733E+00
          0                 2           2           264   78     1       0.8480552003E-01     378  321    1       0.1972496881E+03      0.9081416422E+03      0.9050309085E+04      0.8480552003E-01

    ------------------------------------------------
       NWT REQUIRED            2 OUTER ITERATIONS 
       AND A TOTAL OF          5 INNER ITERATIONS.
    ------------------------------------------------

 NO OUTPUT CONTROL FOR STRESS PERIOD   86   TIME STEP    6

 WELLS WITH REDUCED PUMPING FOR STRESS PERIOD    86 TIME STEP     6
   LAY   ROW   COL         APPL.Q          ACT.Q        GW-HEAD       CELL-BOT
     1    77   213  -0.230952E+04  -0.111138E+04   0.153834E+03   0.148000E+03
     1    92    77  -0.230952E+04  -0.432510E+03  -0.863315E+02  -0.930000E+02
     1    94    77  -0.230952E+04  -0.568397E+03  -0.946853E+02  -0.102000E+03
     1    94    73  -0.230952E+04  -0.684092E+03  -0.667240E+02  -0.740000E+02


 SOLVING FOR HEAD 
                                                   Max.-Head-Change                        Max.-Flux-Residual
  Residual-Control   Outer-Iter.   Inner-Iter.     Column Row Layer    Max.-Head-Change    Column Row Layer    Max.-Flux-Residual            L2-New               L2-Old           Solver-Max-Delh
          0                 1           3           264   78     1      -0.8623442326E+00     378  321    1      -0.1818225490E+04      0.8589896622E+04      0.4540461990E+02     -0.8623442326E+00
          0                 2           2           264   78     1       0.7331462170E-01     378  321    1       0.1816296497E+03      0.8588601554E+03      0.8589896622E+04      0.7331462170E-01

    ------------------------------------------------
       NWT REQUIRED            2 OUTER ITERATIONS 
       AND A TOTAL OF          5 INNER ITERATIONS.
    ------------------------------------------------

 NO OUTPUT CONTROL FOR STRESS PERIOD   86   TIME STEP    7

 WELLS WITH REDUCED PUMPING FOR STRESS PERIOD    86 TIME STEP     7
   LAY   ROW   COL         APPL.Q          ACT.Q        GW-HEAD       CELL-BOT
     1    77   213  -0.230952E+04  -0.106957E+04   0.153689E+03   0.148000E+03
     1    92    77  -0.230952E+04  -0.426185E+03  -0.863866E+02  -0.930000E+02
     1    94    77  -0.230952E+04  -0.558278E+03  -0.947610E+02  -0.102000E+03
     1    94    73  -0.230952E+04  -0.669650E+03  -0.668155E+02  -0.740000E+02


 SOLVING FOR HEAD 
                                                   Max.-Head-Change                        Max.-Flux-Residual
  Residual-Control   Outer-Iter.   Inner-Iter.     Column Row Layer    Max.-Head-Change    Column Row Layer    Max.-Flux-Residual            L2-New               L2-Old           Solver-Max-Delh
          0                 1           3           343  217     1      -0.7656217507E+00     378  321    1      -0.1679331192E+04      0.8240240220E+04      0.4293927910E+02     -0.7656217507E+00
          0                 2           2           343  217     1       0.6560456842E-01     378  321    1       0.1677533233E+03      0.8275320023E+03      0.8240240220E+04      0.6560456842E-01

    ------------------------------------------------
       NWT REQUIRED            2 OUTER ITERATIONS 
       AND A TOTAL OF          5 INNER ITERATIONS.
    ------------------------------------------------

 NO OUTPUT CONTROL FOR STRESS PERIOD   86   TIME STEP    8

 WELLS WITH REDUCED PUMPING FOR STRESS PERIOD    86 TIME STEP     8
   LAY   ROW   COL         APPL.Q          ACT.Q        GW-HEAD       CELL-BOT
     1    77   213  -0.230952E+04  -0.103212E+04   0.153559E+03   0.148000E+03
     1    92    77  -0.230952E+04  -0.422896E+03  -0.864154E+02  -0.930000E+02
     1    94    77  -0.230952E+04  -0.548704E+03  -0.948330E+02  -0.102000E+03
     1    94    73  -0.230952E+04  -0.656110E+03  -0.669017E+02  -0.740000E+02


 SOLVING FOR HEAD 
                                                   Max.-Head-Change                        Max.-Flux-Residual
  Residual-Control   Outer-Iter.   Inner-Iter.     Column Row Layer    Max.-Head-Change    Column Row Layer    Max.-Flux-Residual            L2-New               L2-Old           Solver-Max-Delh
          0                 1           3           343  217     1      -0.7213991348E+00     378  321    1      -0.1555581136E+04      0.7966227694E+04      0.4137353944E+02     -0.7213991348E+00
          0                 2           2           343  217     1       0.6182794146E-01     378  321    1       0.1553918632E+03      0.7963114911E+03      0.7966227694E+04      0.6182794146E-01

    ------------------------------------------------
       NWT REQUIRED            2 OUTER ITERATIONS 
       AND A TOTAL OF          5 INNER ITERATIONS.
    ------------------------------------------------

 NO OUTPUT CONTROL FOR STRESS PERIOD   86   TIME STEP    9

 WELLS WITH REDUCED PUMPING FOR STRESS PERIOD    86 TIME STEP     9
   LAY   ROW   COL         APPL.Q          ACT.Q        GW-HEAD       CELL-BOT
     1    77   213  -0.230952E+04  -0.998600E+03   0.153443E+03   0.148000E+03
     1    92    77  -0.230952E+04  -0.421199E+03  -0.864303E+02  -0.930000E+02
     1    94    77  -0.230952E+04  -0.539640E+03  -0.949015E+02  -0.102000E+03
     1    94    73  -0.230952E+04  -0.643409E+03  -0.669831E+02  -0.740000E+02


 SOLVING FOR HEAD 
                                                   Max.-Head-Change                        Max.-Flux-Residual
  Residual-Control   Outer-Iter.   Inner-Iter.     Column Row Layer    Max.-Head-Change    Column Row Layer    Max.-Flux-Residual            L2-New               L2-Old           Solver-Max-Delh
          0                 1           3           343  217     1      -0.6755459037E+00     378  321    1      -0.1445036892E+04      0.7747024578E+04      0.3981343706E+02     -0.6755459037E+00
          0                 2           2           343  217     1       0.5791816141E-01     378  321    1       0.1443507745E+03      0.7782827925E+03      0.7747024578E+04      0.5791816141E-01

    ------------------------------------------------
       NWT REQUIRED            2 OUTER ITERATIONS 
       AND A TOTAL OF          5 INNER ITERATIONS.
    ------------------------------------------------

 OUTPUT CONTROL FOR STRESS PERIOD   86   TIME STEP   10
    SAVE HEAD FOR ALL LAYERS

 WELLS WITH REDUCED PUMPING FOR STRESS PERIOD    86 TIME STEP    10
   LAY   ROW   COL         APPL.Q          ACT.Q        GW-HEAD       CELL-BOT
     1    77   213  -0.230952E+04  -0.968589E+03   0.153338E+03   0.148000E+03
     1    92    77  -0.230952E+04  -0.420340E+03  -0.864378E+02  -0.930000E+02
     1    94    77  -0.230952E+04  -0.531058E+03  -0.949667E+02  -0.102000E+03
     1    94    73  -0.230952E+04  -0.631492E+03  -0.670598E+02  -0.740000E+02


 HEAD WILL BE SAVED ON UNIT   51 AT END OF TIME STEP   10, STRESS PERIOD   86
1
  VOLUMETRIC BUDGET FOR ENTIRE MODEL AT END OF TIME STEP   10, STRESS PERIOD  86
  ------------------------------------------------------------------------------

     CUMULATIVE VOLUMES      L**3       RATES FOR THIS TIME STEP      L**3/T
     ------------------                 ------------------------

           IN:                                      IN:
           ---                                      ---
             STORAGE =   813298368.0000               STORAGE =      394413.2500
       CONSTANT HEAD =   133848992.0000         CONSTANT HEAD =       52179.2422
               WELLS =           0.0000                 WELLS =           0.0000
              DRAINS =           0.0000                DRAINS =           0.0000
                  ET =           0.0000                    ET =           0.0000
            RECHARGE =   455681408.0000              RECHARGE =      143491.3125

            TOTAL IN =  1402828800.0000              TOTAL IN =      590083.8125

          OUT:                                     OUT:
          ----                                     ----
             STORAGE =   236993360.0000               STORAGE =        9007.5801
       CONSTANT HEAD =           0.0000         CONSTANT HEAD =           0.0000
               WELLS =   776788096.0000                 WELLS =      479698.1250
              DRAINS =   275480480.0000                DRAINS =       71207.4062
                  ET =   111235624.0000                    ET =       28246.8047
            RECHARGE =      525047.1875              RECHARGE =           0.0000

           TOTAL OUT =  1401022592.0000             TOTAL OUT =      588159.9375

            IN - OUT =     1806208.0000              IN - OUT =        1923.8750

 PERCENT DISCREPANCY =           0.13     PERCENT DISCREPANCY =           0.33






         TIME SUMMARY AT END OF TIME STEP   10 IN STRESS PERIOD   86
                    SECONDS     MINUTES      HOURS       DAYS        YEARS
                    -----------------------------------------------------------
   TIME STEP LENGTH 2.62656E+05  4377.6      72.960      3.0400     8.32307E-03
 STRESS PERIOD TIME 2.62656E+06  43776.      729.60      30.400     8.32307E-02
         TOTAL TIME 2.25886E+08 3.76476E+06  62746.      2614.4      7.1579    
1
1
                            STRESS PERIOD NO.   87, LENGTH =   30.40000    
                            -----------------------------------------------

                              NUMBER OF TIME STEPS =    10

                               MULTIPLIER FOR DELT =     1.000

                            INITIAL TIME STEP SIZE =   3.040000    

 REUSING NON-PARAMETER WELLS FROM LAST STRESS PERIOD

    188 WELLS

 REUSING NON-PARAMETER DRAINS FROM LAST STRESS PERIOD

   1061 DRAINS

 REUSING SURF FROM LAST STRESS PERIOD

 REUSING EVTR FROM LAST STRESS PERIOD

 REUSING EXDP FROM LAST STRESS PERIOD



                           RECHARGE
 READING ON UNIT   19 WITH FORMAT: (510E15.6)          

 SOLVING FOR HEAD 
                                                   Max.-Head-Change                        Max.-Flux-Residual
  Residual-Control   Outer-Iter.   Inner-Iter.     Column Row Layer    Max.-Head-Change    Column Row Layer    Max.-Flux-Residual            L2-New               L2-Old           Solver-Max-Delh
          0                 1           3           343  217     1      -0.6275473583E+00     378  321    1      -0.1352487851E+04      0.8122484749E+04      0.3891249591E+02     -0.6275473583E+00
          0                 2           2           343  217     1       0.5382664716E-01     378  321    1       0.1351072802E+03      0.8125931054E+03      0.8122484749E+04      0.5382664716E-01

    ------------------------------------------------
       NWT REQUIRED            2 OUTER ITERATIONS 
       AND A TOTAL OF          5 INNER ITERATIONS.
    ------------------------------------------------

 NO OUTPUT CONTROL FOR STRESS PERIOD   87   TIME STEP    1

 WELLS WITH REDUCED PUMPING FOR STRESS PERIOD    87 TIME STEP     1
   LAY   ROW   COL         APPL.Q          ACT.Q        GW-HEAD       CELL-BOT
     1    77   213  -0.230952E+04  -0.941765E+03   0.153244E+03   0.148000E+03
     1    92    77  -0.230952E+04  -0.420141E+03  -0.864396E+02  -0.930000E+02
     1    94    77  -0.230952E+04  -0.522949E+03  -0.950286E+02  -0.102000E+03
     1    94    73  -0.230952E+04  -0.620329E+03  -0.671320E+02  -0.740000E+02


 SOLVING FOR HEAD 
                                                   Max.-Head-Change                        Max.-Flux-Residual
  Residual-Control   Outer-Iter.   Inner-Iter.     Column Row Layer    Max.-Head-Change    Column Row Layer    Max.-Flux-Residual            L2-New               L2-Old           Solver-Max-Delh
          0                 1           3           343  217     1      -0.5847044783E+00     378  321    1      -0.1263309867E+04      0.7891679381E+04      0.4062666640E+02     -0.5847044783E+00
          0                 2           2           343  217     1       0.5017327233E-01     378  321    1       0.1262016274E+03      0.7911453823E+03      0.7891679381E+04      0.5017327233E-01

    ------------------------------------------------
       NWT REQUIRED            2 OUTER ITERATIONS 
       AND A TOTAL OF          5 INNER ITERATIONS.
    ------------------------------------------------

 NO OUTPUT CONTROL FOR STRESS PERIOD   87   TIME STEP    2

 WELLS WITH REDUCED PUMPING FOR STRESS PERIOD    87 TIME STEP     2
   LAY   ROW   COL         APPL.Q          ACT.Q        GW-HEAD       CELL-BOT
     1    77   213  -0.230952E+04  -0.917738E+03   0.153160E+03   0.148000E+03
     1    92    77  -0.230952E+04  -0.420074E+03  -0.864402E+02  -0.930000E+02
     1    94    77  -0.230952E+04  -0.515264E+03  -0.950876E+02  -0.102000E+03
     1    94    73  -0.230952E+04  -0.609845E+03  -0.672002E+02  -0.740000E+02


 SOLVING FOR HEAD 
                                                   Max.-Head-Change                        Max.-Flux-Residual
  Residual-Control   Outer-Iter.   Inner-Iter.     Column Row Layer    Max.-Head-Change    Column Row Layer    Max.-Flux-Residual            L2-New               L2-Old           Solver-Max-Delh
          0                 1           3           343  217     1      -0.5443838435E+00     378  321    1      -0.1183033456E+04      0.7734892068E+04      0.3960803019E+02     -0.5443838435E+00
          0                 2           2           343  217     1       0.4673322003E-01     378  321    1       0.1181852330E+03      0.7739608170E+03      0.7734892068E+04      0.4673322003E-01

    ------------------------------------------------
       NWT REQUIRED            2 OUTER ITERATIONS 
       AND A TOTAL OF          5 INNER ITERATIONS.
    ------------------------------------------------

 NO OUTPUT CONTROL FOR STRESS PERIOD   87   TIME STEP    3

 WELLS WITH REDUCED PUMPING FOR STRESS PERIOD    87 TIME STEP     3
   LAY   ROW   COL         APPL.Q          ACT.Q        GW-HEAD       CELL-BOT
     1    77   213  -0.230952E+04  -0.896208E+03   0.153084E+03   0.148000E+03
     1    92    77  -0.230952E+04  -0.420078E+03  -0.864401E+02  -0.930000E+02
     1    94    77  -0.230952E+04  -0.507978E+03  -0.951438E+02  -0.102000E+03
     1    94    73  -0.230952E+04  -0.599994E+03  -0.672646E+02  -0.740000E+02


 SOLVING FOR HEAD 
                                                   Max.-Head-Change                        Max.-Flux-Residual
  Residual-Control   Outer-Iter.   Inner-Iter.     Column Row Layer    Max.-Head-Change    Column Row Layer    Max.-Flux-Residual            L2-New               L2-Old           Solver-Max-Delh
          0                 1           3           343  217     1      -0.5068541610E+00     378  321    1      -0.1110617851E+04      0.7609914377E+04      0.3869688436E+02     -0.5068541610E+00
          0                 2           2           343  217     1       0.4352926482E-01     378  321    1       0.1109540052E+03      0.7617798786E+03      0.7609914377E+04      0.4352926482E-01

    ------------------------------------------------
       NWT REQUIRED            2 OUTER ITERATIONS 
       AND A TOTAL OF          5 INNER ITERATIONS.
    ------------------------------------------------

 NO OUTPUT CONTROL FOR STRESS PERIOD   87   TIME STEP    4

 WELLS WITH REDUCED PUMPING FOR STRESS PERIOD    87 TIME STEP     4
   LAY   ROW   COL         APPL.Q          ACT.Q        GW-HEAD       CELL-BOT
     1    77   213  -0.230952E+04  -0.876905E+03   0.153015E+03   0.148000E+03
     1    92    77  -0.230952E+04  -0.420117E+03  -0.864398E+02  -0.930000E+02
     1    94    77  -0.230952E+04  -0.501067E+03  -0.951973E+02  -0.102000E+03
     1    94    73  -0.230952E+04  -0.590733E+03  -0.673254E+02  -0.740000E+02


 SOLVING FOR HEAD 
                                                   Max.-Head-Change                        Max.-Flux-Residual
  Residual-Control   Outer-Iter.   Inner-Iter.     Column Row Layer    Max.-Head-Change    Column Row Layer    Max.-Flux-Residual            L2-New               L2-Old           Solver-Max-Delh
          0                 1           3           343  217     1      -0.4721222413E+00     378  321    1      -0.1045160805E+04      0.7505321127E+04      0.3808794285E+02     -0.4721222413E+00
          0                 2           2           343  217     1       0.4070152864E-01     378  321    1       0.1044177428E+03      0.7504121916E+03      0.7505321127E+04      0.4070152864E-01

    ------------------------------------------------
       NWT REQUIRED            2 OUTER ITERATIONS 
       AND A TOTAL OF          5 INNER ITERATIONS.
    ------------------------------------------------

 NO OUTPUT CONTROL FOR STRESS PERIOD   87   TIME STEP    5

 WELLS WITH REDUCED PUMPING FOR STRESS PERIOD    87 TIME STEP     5
   LAY   ROW   COL         APPL.Q          ACT.Q        GW-HEAD       CELL-BOT
     1    77   213  -0.230952E+04  -0.859588E+03   0.152954E+03   0.148000E+03
     1    92    77  -0.230952E+04  -0.420174E+03  -0.864393E+02  -0.930000E+02
     1    94    77  -0.230952E+04  -0.494510E+03  -0.952483E+02  -0.102000E+03
     1    94    73  -0.230952E+04  -0.582023E+03  -0.673828E+02  -0.740000E+02


 SOLVING FOR HEAD 
                                                   Max.-Head-Change                        Max.-Flux-Residual
  Residual-Control   Outer-Iter.   Inner-Iter.     Column Row Layer    Max.-Head-Change    Column Row Layer    Max.-Flux-Residual            L2-New               L2-Old           Solver-Max-Delh
          0                 1           3           343  217     1      -0.4396871155E+00     378  321    1      -0.9858804779E+03      0.7415795983E+04      0.3751985954E+02     -0.4396871155E+00
          0                 2           2           343  217     1       0.3779246679E-01     378  321    1       0.9849830664E+02      0.7414764398E+03      0.7415795983E+04      0.3779246679E-01

    ------------------------------------------------
       NWT REQUIRED            2 OUTER ITERATIONS 
       AND A TOTAL OF          5 INNER ITERATIONS.
    ------------------------------------------------

 NO OUTPUT CONTROL FOR STRESS PERIOD   87   TIME STEP    6

 WELLS WITH REDUCED PUMPING FOR STRESS PERIOD    87 TIME STEP     6
   LAY   ROW   COL         APPL.Q          ACT.Q        GW-HEAD       CELL-BOT
     1    77   213  -0.230952E+04  -0.844044E+03   0.152898E+03   0.148000E+03
     1    92    77  -0.230952E+04  -0.420239E+03  -0.864387E+02  -0.930000E+02
     1    94    77  -0.230952E+04  -0.488286E+03  -0.952969E+02  -0.102000E+03
     1    94    73  -0.230952E+04  -0.573830E+03  -0.674371E+02  -0.740000E+02


 SOLVING FOR HEAD 
                                                   Max.-Head-Change                        Max.-Flux-Residual
  Residual-Control   Outer-Iter.   Inner-Iter.     Column Row Layer    Max.-Head-Change    Column Row Layer    Max.-Flux-Residual            L2-New               L2-Old           Solver-Max-Delh
          0                 1           3           343  217     1      -0.4099798526E+00     378  321    1      -0.9320959158E+03      0.7337933048E+04      0.3707451404E+02     -0.4099798526E+00
          0                 2           2           343  217     1       0.3525085232E-01     378  321    1       0.9312765753E+02      0.7337224656E+03      0.7337933048E+04      0.3525085232E-01

    ------------------------------------------------
       NWT REQUIRED            2 OUTER ITERATIONS 
       AND A TOTAL OF          5 INNER ITERATIONS.
    ------------------------------------------------

 NO OUTPUT CONTROL FOR STRESS PERIOD   87   TIME STEP    7

 WELLS WITH REDUCED PUMPING FOR STRESS PERIOD    87 TIME STEP     7
   LAY   ROW   COL         APPL.Q          ACT.Q        GW-HEAD       CELL-BOT
     1    77   213  -0.230952E+04  -0.830080E+03   0.152848E+03   0.148000E+03
     1    92    77  -0.230952E+04  -0.420308E+03  -0.864381E+02  -0.930000E+02
     1    94    77  -0.230952E+04  -0.482377E+03  -0.953433E+02  -0.102000E+03
     1    94    73  -0.230952E+04  -0.566117E+03  -0.674884E+02  -0.740000E+02


 SOLVING FOR HEAD 
                                                   Max.-Head-Change                        Max.-Flux-Residual
  Residual-Control   Outer-Iter.   Inner-Iter.     Column Row Layer    Max.-Head-Change    Column Row Layer    Max.-Flux-Residual            L2-New               L2-Old           Solver-Max-Delh
          0                 1           3           343  217     1      -0.3826784357E+00     378  321    1      -0.8832109297E+03      0.7269289790E+04      0.3668549961E+02     -0.3826784357E+00
          0                 2           2           343  217     1       0.3291349312E-01     378  321    1       0.8824623749E+02      0.7268261379E+03      0.7269289790E+04      0.3291349312E-01

    ------------------------------------------------
       NWT REQUIRED            2 OUTER ITERATIONS 
       AND A TOTAL OF          5 INNER ITERATIONS.
    ------------------------------------------------

 NO OUTPUT CONTROL FOR STRESS PERIOD   87   TIME STEP    8

 WELLS WITH REDUCED PUMPING FOR STRESS PERIOD    87 TIME STEP     8
   LAY   ROW   COL         APPL.Q          ACT.Q        GW-HEAD       CELL-BOT
     1    77   213  -0.230952E+04  -0.817529E+03   0.152803E+03   0.148000E+03
     1    92    77  -0.230952E+04  -0.420378E+03  -0.864375E+02  -0.930000E+02
     1    94    77  -0.230952E+04  -0.476764E+03  -0.953874E+02  -0.102000E+03
     1    94    73  -0.230952E+04  -0.558856E+03  -0.675369E+02  -0.740000E+02


 SOLVING FOR HEAD 
                                                   Max.-Head-Change                        Max.-Flux-Residual
  Residual-Control   Outer-Iter.   Inner-Iter.     Column Row Layer    Max.-Head-Change    Column Row Layer    Max.-Flux-Residual            L2-New               L2-Old           Solver-Max-Delh
          0                 1           3           343  217     1      -0.3576086947E+00     378  321    1      -0.8387171559E+03      0.7208163887E+04      0.3634068671E+02     -0.3576086947E+00
          0                 2           2           343  217     1       0.3076589049E-01     378  321    1       0.8380325231E+02      0.7207425547E+03      0.7208163887E+04      0.3076589049E-01

    ------------------------------------------------
       NWT REQUIRED            2 OUTER ITERATIONS 
       AND A TOTAL OF          5 INNER ITERATIONS.
    ------------------------------------------------

 NO OUTPUT CONTROL FOR STRESS PERIOD   87   TIME STEP    9

 WELLS WITH REDUCED PUMPING FOR STRESS PERIOD    87 TIME STEP     9
   LAY   ROW   COL         APPL.Q          ACT.Q        GW-HEAD       CELL-BOT
     1    77   213  -0.230952E+04  -0.806240E+03   0.152763E+03   0.148000E+03
     1    92    77  -0.230952E+04  -0.420448E+03  -0.864369E+02  -0.930000E+02
     1    94    77  -0.230952E+04  -0.471431E+03  -0.954296E+02  -0.102000E+03
     1    94    73  -0.230952E+04  -0.552016E+03  -0.675827E+02  -0.740000E+02


 SOLVING FOR HEAD 
                                                   Max.-Head-Change                        Max.-Flux-Residual
  Residual-Control   Outer-Iter.   Inner-Iter.     Column Row Layer    Max.-Head-Change    Column Row Layer    Max.-Flux-Residual            L2-New               L2-Old           Solver-Max-Delh
          0                 1           3           343  217     1      -0.3345784601E+00     378  321    1      -0.7981689129E+03      0.7153241213E+04      0.3603656040E+02     -0.3345784601E+00
          0                 2           2           343  217     1       0.2879196089E-01     378  321    1       0.7975422244E+02      0.7154649666E+03      0.7153241213E+04      0.2879196089E-01

    ------------------------------------------------
       NWT REQUIRED            2 OUTER ITERATIONS 
       AND A TOTAL OF          5 INNER ITERATIONS.
    ------------------------------------------------

 OUTPUT CONTROL FOR STRESS PERIOD   87   TIME STEP   10
    SAVE HEAD FOR ALL LAYERS

 WELLS WITH REDUCED PUMPING FOR STRESS PERIOD    87 TIME STEP    10
   LAY   ROW   COL         APPL.Q          ACT.Q        GW-HEAD       CELL-BOT
     1    77   213  -0.230952E+04  -0.796079E+03   0.152726E+03   0.148000E+03
     1    92    77  -0.230952E+04  -0.420516E+03  -0.864363E+02  -0.930000E+02
     1    94    77  -0.230952E+04  -0.466363E+03  -0.954698E+02  -0.102000E+03
     1    94    73  -0.230952E+04  -0.545570E+03  -0.676261E+02  -0.740000E+02


 HEAD WILL BE SAVED ON UNIT   51 AT END OF TIME STEP   10, STRESS PERIOD   87
1
  VOLUMETRIC BUDGET FOR ENTIRE MODEL AT END OF TIME STEP   10, STRESS PERIOD  87
  ------------------------------------------------------------------------------

     CUMULATIVE VOLUMES      L**3       RATES FOR THIS TIME STEP      L**3/T
     ------------------                 ------------------------

           IN:                                      IN:
           ---                                      ---
             STORAGE =   825582208.0000               STORAGE =      400846.0938
       CONSTANT HEAD =   135435232.0000         CONSTANT HEAD =       52180.6211
               WELLS =           0.0000                 WELLS =           0.0000
              DRAINS =           0.0000                DRAINS =           0.0000
                  ET =           0.0000                    ET =           0.0000
            RECHARGE =   459599168.0000              RECHARGE =      128869.2812

            TOTAL IN =  1420616704.0000              TOTAL IN =      581896.0000

          OUT:                                     OUT:
          ----                                     ----
             STORAGE =   237240112.0000               STORAGE =        7695.7720
       CONSTANT HEAD =           0.0000         CONSTANT HEAD =           0.0000
               WELLS =   791364736.0000                 WELLS =      479375.1875
              DRAINS =   277561632.0000                DRAINS =       66568.8047
                  ET =   112058752.0000                    ET =       26296.5137
            RECHARGE =      525047.1875              RECHARGE =           0.0000

           TOTAL OUT =  1418750336.0000             TOTAL OUT =      579936.2500

            IN - OUT =     1866368.0000              IN - OUT =        1959.7500

 PERCENT DISCREPANCY =           0.13     PERCENT DISCREPANCY =           0.34






         TIME SUMMARY AT END OF TIME STEP   10 IN STRESS PERIOD   87
                    SECONDS     MINUTES      HOURS       DAYS        YEARS
                    -----------------------------------------------------------
   TIME STEP LENGTH 2.62656E+05  4377.6      72.960      3.0400     8.32307E-03
 STRESS PERIOD TIME 2.62656E+06  43776.      729.60      30.400     8.32307E-02
         TOTAL TIME 2.28512E+08 3.80854E+06  63476.      2644.8      7.2411    
1
1
                            STRESS PERIOD NO.   88, LENGTH =   30.40000    
                            -----------------------------------------------

                              NUMBER OF TIME STEPS =    10

                               MULTIPLIER FOR DELT =     1.000

                            INITIAL TIME STEP SIZE =   3.040000    

 REUSING NON-PARAMETER WELLS FROM LAST STRESS PERIOD

    188 WELLS

 REUSING NON-PARAMETER DRAINS FROM LAST STRESS PERIOD

   1061 DRAINS

 REUSING SURF FROM LAST STRESS PERIOD

 REUSING EVTR FROM LAST STRESS PERIOD

 REUSING EXDP FROM LAST STRESS PERIOD



                           RECHARGE
 READING ON UNIT   19 WITH FORMAT: (510E15.6)          

 SOLVING FOR HEAD 
                                                   Max.-Head-Change                        Max.-Flux-Residual
  Residual-Control   Outer-Iter.   Inner-Iter.     Column Row Layer    Max.-Head-Change    Column Row Layer    Max.-Flux-Residual            L2-New               L2-Old           Solver-Max-Delh
          0                 1           3           343  217     1      -0.4639424640E+00     464  446    1       0.1003863790E+04      0.1003517001E+05      0.3577269614E+02     -0.4639424640E+00
          0                 2           2           343  217     1       0.3986978521E-01     466  446    1      -0.1021409173E+03      0.1007370394E+04      0.1003517001E+05      0.3986978521E-01

    ------------------------------------------------
       NWT REQUIRED            2 OUTER ITERATIONS 
       AND A TOTAL OF          5 INNER ITERATIONS.
    ------------------------------------------------

 NO OUTPUT CONTROL FOR STRESS PERIOD   88   TIME STEP    1

 WELLS WITH REDUCED PUMPING FOR STRESS PERIOD    88 TIME STEP     1
   LAY   ROW   COL         APPL.Q          ACT.Q        GW-HEAD       CELL-BOT
     1    77   213  -0.230952E+04  -0.784632E+03   0.152685E+03   0.148000E+03
     1    92    77  -0.230952E+04  -0.409489E+03  -0.865335E+02  -0.930000E+02
     1    94    77  -0.230952E+04  -0.460458E+03  -0.955169E+02  -0.102000E+03
     1    94    73  -0.230952E+04  -0.538224E+03  -0.676757E+02  -0.740000E+02


 SOLVING FOR HEAD 
                                                   Max.-Head-Change                        Max.-Flux-Residual
  Residual-Control   Outer-Iter.   Inner-Iter.     Column Row Layer    Max.-Head-Change    Column Row Layer    Max.-Flux-Residual            L2-New               L2-Old           Solver-Max-Delh
          0                 1           3           343  217     1      -0.4350843107E+00     461  449    1       0.7823288225E+03      0.8456441675E+04      0.5039835573E+02     -0.4350843107E+00
          0                 2           2           343  217     1       0.3740789045E-01     461  449    1      -0.7919471662E+02      0.8466474277E+03      0.8456441675E+04      0.3740789045E-01

    ------------------------------------------------
       NWT REQUIRED            2 OUTER ITERATIONS 
       AND A TOTAL OF          5 INNER ITERATIONS.
    ------------------------------------------------

 NO OUTPUT CONTROL FOR STRESS PERIOD   88   TIME STEP    2

 WELLS WITH REDUCED PUMPING FOR STRESS PERIOD    88 TIME STEP     2
   LAY   ROW   COL         APPL.Q          ACT.Q        GW-HEAD       CELL-BOT
     1    77   213  -0.230952E+04  -0.774287E+03   0.152647E+03   0.148000E+03
     1    92    77  -0.230952E+04  -0.403489E+03  -0.865868E+02  -0.930000E+02
     1    94    77  -0.230952E+04  -0.454845E+03  -0.955618E+02  -0.102000E+03
     1    94    73  -0.230952E+04  -0.531299E+03  -0.677227E+02  -0.740000E+02


 SOLVING FOR HEAD 
                                                   Max.-Head-Change                        Max.-Flux-Residual
  Residual-Control   Outer-Iter.   Inner-Iter.     Column Row Layer    Max.-Head-Change    Column Row Layer    Max.-Flux-Residual            L2-New               L2-Old           Solver-Max-Delh
          0                 1           3           343  217     1      -0.4115030094E+00     197   82    1      -0.7594972668E+03      0.7909495367E+04      0.4234482494E+02     -0.4115030094E+00
          0                 2           2           343  217     1       0.3538910754E-01     197   82    1       0.7593010534E+02      0.7912348951E+03      0.7909495367E+04      0.3538910754E-01

    ------------------------------------------------
       NWT REQUIRED            2 OUTER ITERATIONS 
       AND A TOTAL OF          5 INNER ITERATIONS.
    ------------------------------------------------

 NO OUTPUT CONTROL FOR STRESS PERIOD   88   TIME STEP    3

 WELLS WITH REDUCED PUMPING FOR STRESS PERIOD    88 TIME STEP     3
   LAY   ROW   COL         APPL.Q          ACT.Q        GW-HEAD       CELL-BOT
     1    77   213  -0.230952E+04  -0.764929E+03   0.152613E+03   0.148000E+03
     1    92    77  -0.230952E+04  -0.400133E+03  -0.866168E+02  -0.930000E+02
     1    94    77  -0.230952E+04  -0.449509E+03  -0.956046E+02  -0.102000E+03
     1    94    73  -0.230952E+04  -0.524769E+03  -0.677671E+02  -0.740000E+02


 SOLVING FOR HEAD 
                                                   Max.-Head-Change                        Max.-Flux-Residual
  Residual-Control   Outer-Iter.   Inner-Iter.     Column Row Layer    Max.-Head-Change    Column Row Layer    Max.-Flux-Residual            L2-New               L2-Old           Solver-Max-Delh
          0                 1           3           343  217     1      -0.3896118809E+00     197   82    1      -0.7506255314E+03      0.7619780722E+04      0.3956392926E+02     -0.3896118809E+00
          0                 2           2           343  217     1       0.3351298315E-01     197   82    1       0.7504328137E+02      0.7620550429E+03      0.7619780722E+04      0.3351298315E-01

    ------------------------------------------------
       NWT REQUIRED            2 OUTER ITERATIONS 
       AND A TOTAL OF          5 INNER ITERATIONS.
    ------------------------------------------------

 NO OUTPUT CONTROL FOR STRESS PERIOD   88   TIME STEP    4

 WELLS WITH REDUCED PUMPING FOR STRESS PERIOD    88 TIME STEP     4
   LAY   ROW   COL         APPL.Q          ACT.Q        GW-HEAD       CELL-BOT
     1    77   213  -0.230952E+04  -0.756454E+03   0.152582E+03   0.148000E+03
     1    92    77  -0.230952E+04  -0.398178E+03  -0.866343E+02  -0.930000E+02
     1    94    77  -0.230952E+04  -0.444433E+03  -0.956455E+02  -0.102000E+03
     1    94    73  -0.230952E+04  -0.518608E+03  -0.678093E+02  -0.740000E+02


 SOLVING FOR HEAD 
                                                   Max.-Head-Change                        Max.-Flux-Residual
  Residual-Control   Outer-Iter.   Inner-Iter.     Column Row Layer    Max.-Head-Change    Column Row Layer    Max.-Flux-Residual            L2-New               L2-Old           Solver-Max-Delh
          0                 1           3           343  217     1      -0.3685970562E+00     197   82    1      -0.7419150238E+03      0.7440715613E+04      0.3810341350E+02     -0.3685970562E+00
          0                 2           2           343  217     1       0.3171140040E-01     197   82    1       0.7417257188E+02      0.7440879498E+03      0.7440715613E+04      0.3171140040E-01

    ------------------------------------------------
       NWT REQUIRED            2 OUTER ITERATIONS 
       AND A TOTAL OF          5 INNER ITERATIONS.
    ------------------------------------------------

 NO OUTPUT CONTROL FOR STRESS PERIOD   88   TIME STEP    5

 WELLS WITH REDUCED PUMPING FOR STRESS PERIOD    88 TIME STEP     5
   LAY   ROW   COL         APPL.Q          ACT.Q        GW-HEAD       CELL-BOT
     1    77   213  -0.230952E+04  -0.748770E+03   0.152554E+03   0.148000E+03
     1    92    77  -0.230952E+04  -0.396970E+03  -0.866451E+02  -0.930000E+02
     1    94    77  -0.230952E+04  -0.439603E+03  -0.956846E+02  -0.102000E+03
     1    94    73  -0.230952E+04  -0.512795E+03  -0.678491E+02  -0.740000E+02


 SOLVING FOR HEAD 
                                                   Max.-Head-Change                        Max.-Flux-Residual
  Residual-Control   Outer-Iter.   Inner-Iter.     Column Row Layer    Max.-Head-Change    Column Row Layer    Max.-Flux-Residual            L2-New               L2-Old           Solver-Max-Delh
          0                 1           3           343  217     1      -0.3484547287E+00     197   82    1      -0.7333630035E+03      0.7318414014E+04      0.3720458184E+02     -0.3484547287E+00
          0                 2           2           343  217     1       0.2998430323E-01     197   82    1       0.7331770290E+02      0.7318598365E+03      0.7318414014E+04      0.2998430323E-01

    ------------------------------------------------
       NWT REQUIRED            2 OUTER ITERATIONS 
       AND A TOTAL OF          5 INNER ITERATIONS.
    ------------------------------------------------

 NO OUTPUT CONTROL FOR STRESS PERIOD   88   TIME STEP    6

 WELLS WITH REDUCED PUMPING FOR STRESS PERIOD    88 TIME STEP     6
   LAY   ROW   COL         APPL.Q          ACT.Q        GW-HEAD       CELL-BOT
     1    77   213  -0.230952E+04  -0.741795E+03   0.152528E+03   0.148000E+03
     1    92    77  -0.230952E+04  -0.396162E+03  -0.866523E+02  -0.930000E+02
     1    94    77  -0.230952E+04  -0.435006E+03  -0.957220E+02  -0.102000E+03
     1    94    73  -0.230952E+04  -0.507306E+03  -0.678869E+02  -0.740000E+02


 SOLVING FOR HEAD 
                                                   Max.-Head-Change                        Max.-Flux-Residual
  Residual-Control   Outer-Iter.   Inner-Iter.     Column Row Layer    Max.-Head-Change    Column Row Layer    Max.-Flux-Residual            L2-New               L2-Old           Solver-Max-Delh
          0                 1           3           265   78     1      -0.3299798297E+00     197   82    1      -0.7249670080E+03      0.7228624636E+04      0.3659294375E+02     -0.3299798297E+00
          0                 2           2           343  217     1       0.2834408548E-01     197   82    1       0.7247842847E+02      0.7228393635E+03      0.7228624636E+04      0.2834408548E-01

    ------------------------------------------------
       NWT REQUIRED            2 OUTER ITERATIONS 
       AND A TOTAL OF          5 INNER ITERATIONS.
    ------------------------------------------------

 NO OUTPUT CONTROL FOR STRESS PERIOD   88   TIME STEP    7

 WELLS WITH REDUCED PUMPING FOR STRESS PERIOD    88 TIME STEP     7
   LAY   ROW   COL         APPL.Q          ACT.Q        GW-HEAD       CELL-BOT
     1    77   213  -0.230952E+04  -0.735457E+03   0.152505E+03   0.148000E+03
     1    92    77  -0.230952E+04  -0.395570E+03  -0.866576E+02  -0.930000E+02
     1    94    77  -0.230952E+04  -0.430628E+03  -0.957577E+02  -0.102000E+03
     1    94    73  -0.230952E+04  -0.502122E+03  -0.679228E+02  -0.740000E+02


 SOLVING FOR HEAD 
                                                   Max.-Head-Change                        Max.-Flux-Residual
  Residual-Control   Outer-Iter.   Inner-Iter.     Column Row Layer    Max.-Head-Change    Column Row Layer    Max.-Flux-Residual            L2-New               L2-Old           Solver-Max-Delh
          0                 1           3           265   78     1      -0.3160878808E+00     197   82    1      -0.7167244780E+03      0.7158958822E+04      0.3614178798E+02     -0.3160878808E+00
          0                 2           2           265   78     1       0.2715075493E-01     197   82    1       0.7165449293E+02      0.7160186773E+03      0.7158958822E+04      0.2715075493E-01

    ------------------------------------------------
       NWT REQUIRED            2 OUTER ITERATIONS 
       AND A TOTAL OF          5 INNER ITERATIONS.
    ------------------------------------------------

 NO OUTPUT CONTROL FOR STRESS PERIOD   88   TIME STEP    8

 WELLS WITH REDUCED PUMPING FOR STRESS PERIOD    88 TIME STEP     8
   LAY   ROW   COL         APPL.Q          ACT.Q        GW-HEAD       CELL-BOT
     1    77   213  -0.230952E+04  -0.729690E+03   0.152484E+03   0.148000E+03
     1    92    77  -0.230952E+04  -0.395096E+03  -0.866619E+02  -0.930000E+02
     1    94    77  -0.230952E+04  -0.426460E+03  -0.957918E+02  -0.102000E+03
     1    94    73  -0.230952E+04  -0.497224E+03  -0.679567E+02  -0.740000E+02


 SOLVING FOR HEAD 
                                                   Max.-Head-Change                        Max.-Flux-Residual
  Residual-Control   Outer-Iter.   Inner-Iter.     Column Row Layer    Max.-Head-Change    Column Row Layer    Max.-Flux-Residual            L2-New               L2-Old           Solver-Max-Delh
          0                 1           3           266   78     1      -0.3031209949E+00     197   82    1      -0.7086326760E+03      0.7102514680E+04      0.3580071315E+02     -0.3031209949E+00
          0                 2           2           266   78     1       0.2607766891E-01     197   82    1       0.7084562284E+02      0.7102054279E+03      0.7102514680E+04      0.2607766891E-01

    ------------------------------------------------
       NWT REQUIRED            2 OUTER ITERATIONS 
       AND A TOTAL OF          5 INNER ITERATIONS.
    ------------------------------------------------

 NO OUTPUT CONTROL FOR STRESS PERIOD   88   TIME STEP    9

 WELLS WITH REDUCED PUMPING FOR STRESS PERIOD    88 TIME STEP     9
   LAY   ROW   COL         APPL.Q          ACT.Q        GW-HEAD       CELL-BOT
     1    77   213  -0.230952E+04  -0.724436E+03   0.152464E+03   0.148000E+03
     1    92    77  -0.230952E+04  -0.394687E+03  -0.866655E+02  -0.930000E+02
     1    94    77  -0.230952E+04  -0.422488E+03  -0.958244E+02  -0.102000E+03
     1    94    73  -0.230952E+04  -0.492594E+03  -0.679889E+02  -0.740000E+02


 SOLVING FOR HEAD 
                                                   Max.-Head-Change                        Max.-Flux-Residual
  Residual-Control   Outer-Iter.   Inner-Iter.     Column Row Layer    Max.-Head-Change    Column Row Layer    Max.-Flux-Residual            L2-New               L2-Old           Solver-Max-Delh
          0                 1           3           266   78     1      -0.2941750012E+00     197   82    1      -0.7006890781E+03      0.7055222422E+04      0.3551008307E+02     -0.2941750012E+00
          0                 2           2           266   78     1       0.2530731777E-01     197   82    1       0.7005156604E+02      0.7055031111E+03      0.7055222422E+04      0.2530731777E-01

    ------------------------------------------------
       NWT REQUIRED            2 OUTER ITERATIONS 
       AND A TOTAL OF          5 INNER ITERATIONS.
    ------------------------------------------------

 OUTPUT CONTROL FOR STRESS PERIOD   88   TIME STEP   10
    SAVE HEAD FOR ALL LAYERS

 WELLS WITH REDUCED PUMPING FOR STRESS PERIOD    88 TIME STEP    10
   LAY   ROW   COL         APPL.Q          ACT.Q        GW-HEAD       CELL-BOT
     1    77   213  -0.230952E+04  -0.719643E+03   0.152447E+03   0.148000E+03
     1    92    77  -0.230952E+04  -0.394316E+03  -0.866689E+02  -0.930000E+02
     1    94    77  -0.230952E+04  -0.418702E+03  -0.958556E+02  -0.102000E+03
     1    94    73  -0.230952E+04  -0.488217E+03  -0.680194E+02  -0.740000E+02


 HEAD WILL BE SAVED ON UNIT   51 AT END OF TIME STEP   10, STRESS PERIOD   88
1
  VOLUMETRIC BUDGET FOR ENTIRE MODEL AT END OF TIME STEP   10, STRESS PERIOD  88
  ------------------------------------------------------------------------------

     CUMULATIVE VOLUMES      L**3       RATES FOR THIS TIME STEP      L**3/T
     ------------------                 ------------------------

           IN:                                      IN:
           ---                                      ---
             STORAGE =   838667200.0000               STORAGE =      421750.2500
       CONSTANT HEAD =   137021520.0000         CONSTANT HEAD =       52181.9414
               WELLS =           0.0000                 WELLS =           0.0000
              DRAINS =           0.0000                DRAINS =           0.0000
                  ET =           0.0000                    ET =           0.0000
            RECHARGE =   462969088.0000              RECHARGE =      110850.7500

            TOTAL IN =  1438657792.0000              TOTAL IN =      584782.9375

          OUT:                                     OUT:
          ----                                     ----
             STORAGE =   237939184.0000               STORAGE =       16842.1152
       CONSTANT HEAD =           0.0000         CONSTANT HEAD =           0.0000
               WELLS =   805933632.0000                 WELLS =      479167.5312
              DRAINS =   279509184.0000                DRAINS =       62265.0781
                  ET =   112822608.0000                    ET =       24491.4844
            RECHARGE =      525047.1875              RECHARGE =           0.0000

           TOTAL OUT =  1436729728.0000             TOTAL OUT =      582766.2500

            IN - OUT =     1928064.0000              IN - OUT =        2016.6875

 PERCENT DISCREPANCY =           0.13     PERCENT DISCREPANCY =           0.35






         TIME SUMMARY AT END OF TIME STEP   10 IN STRESS PERIOD   88
                    SECONDS     MINUTES      HOURS       DAYS        YEARS
                    -----------------------------------------------------------
   TIME STEP LENGTH 2.62656E+05  4377.6      72.960      3.0400     8.32307E-03
 STRESS PERIOD TIME 2.62656E+06  43776.      729.60      30.400     8.32307E-02
         TOTAL TIME 2.31139E+08 3.85231E+06  64205.      2675.2      7.3243    
1
1
                            STRESS PERIOD NO.   89, LENGTH =   30.40000    
                            -----------------------------------------------

                              NUMBER OF TIME STEPS =    10

                               MULTIPLIER FOR DELT =     1.000

                            INITIAL TIME STEP SIZE =   3.040000    

 REUSING NON-PARAMETER WELLS FROM LAST STRESS PERIOD

    188 WELLS

 REUSING NON-PARAMETER DRAINS FROM LAST STRESS PERIOD

   1061 DRAINS

 REUSING SURF FROM LAST STRESS PERIOD

 REUSING EVTR FROM LAST STRESS PERIOD

 REUSING EXDP FROM LAST STRESS PERIOD



                           RECHARGE
 READING ON UNIT   19 WITH FORMAT: (510E15.6)          

 SOLVING FOR HEAD 
                                                   Max.-Head-Change                        Max.-Flux-Residual
  Residual-Control   Outer-Iter.   Inner-Iter.     Column Row Layer    Max.-Head-Change    Column Row Layer    Max.-Flux-Residual            L2-New               L2-Old           Solver-Max-Delh
          0                 1           3           461  449     1       0.6184880799E+00     461  450    1       0.1768332064E+04      0.1336710072E+05      0.3527489066E+02      0.6184880799E+00
          0                 2           2           461  449     1      -0.5400433079E-01     468  447    1      -0.1823563006E+03      0.1349814869E+04      0.1336710072E+05     -0.5400433079E-01

    ------------------------------------------------
       NWT REQUIRED            2 OUTER ITERATIONS 
       AND A TOTAL OF          5 INNER ITERATIONS.
    ------------------------------------------------

 NO OUTPUT CONTROL FOR STRESS PERIOD   89   TIME STEP    1

 WELLS WITH REDUCED PUMPING FOR STRESS PERIOD    89 TIME STEP     1
   LAY   ROW   COL         APPL.Q          ACT.Q        GW-HEAD       CELL-BOT
     1    77   213  -0.230952E+04  -0.715405E+03   0.152431E+03   0.148000E+03
     1    92    77  -0.230952E+04  -0.394651E+03  -0.866659E+02  -0.930000E+02
     1    94    77  -0.230952E+04  -0.415159E+03  -0.958849E+02  -0.102000E+03
     1    94    73  -0.230952E+04  -0.484154E+03  -0.680478E+02  -0.740000E+02


 SOLVING FOR HEAD 
                                                   Max.-Head-Change                        Max.-Flux-Residual
  Residual-Control   Outer-Iter.   Inner-Iter.     Column Row Layer    Max.-Head-Change    Column Row Layer    Max.-Flux-Residual            L2-New               L2-Old           Solver-Max-Delh
          0                 1           3           461  449     1       0.5045893317E+00     461  449    1       0.1480653635E+04      0.1126106262E+05      0.6759384260E+02      0.5045893317E+00
          0                 2           2            53   88     1      -0.1204206166E+00     461  449    1      -0.1506523378E+03      0.1132038767E+04      0.1126106262E+05     -0.1204206166E+00
          0                 3           2            53   88     1      -0.6025230245E-02     461  449    1      -0.7552882690E+01      0.5663088877E+02      0.1132038767E+04     -0.6025230245E-02

    ------------------------------------------------
       NWT REQUIRED            3 OUTER ITERATIONS 
       AND A TOTAL OF          7 INNER ITERATIONS.
    ------------------------------------------------

 NO OUTPUT CONTROL FOR STRESS PERIOD   89   TIME STEP    2

 WELLS WITH REDUCED PUMPING FOR STRESS PERIOD    89 TIME STEP     2
   LAY   ROW   COL         APPL.Q          ACT.Q        GW-HEAD       CELL-BOT
     1    77   213  -0.230952E+04  -0.711546E+03   0.152417E+03   0.148000E+03
     1    92    77  -0.230952E+04  -0.394694E+03  -0.866655E+02  -0.930000E+02
     1    94    77  -0.230952E+04  -0.411796E+03  -0.959127E+02  -0.102000E+03
     1    94    73  -0.230952E+04  -0.480328E+03  -0.680747E+02  -0.740000E+02


 SOLVING FOR HEAD 
                                                   Max.-Head-Change                        Max.-Flux-Residual
  Residual-Control   Outer-Iter.   Inner-Iter.     Column Row Layer    Max.-Head-Change    Column Row Layer    Max.-Flux-Residual            L2-New               L2-Old           Solver-Max-Delh
          0                 1           3           461  449     1       0.4230413717E+00     461  449    1       0.1209492426E+04      0.1044567938E+05      0.5663088877E+02      0.4230413717E+00
          0                 2           2           461  449     1      -0.3674920739E-01     461  449    1      -0.1224700143E+03      0.1046150628E+04      0.1044567938E+05     -0.3674920739E-01

    ------------------------------------------------
       NWT REQUIRED            2 OUTER ITERATIONS 
       AND A TOTAL OF          5 INNER ITERATIONS.
    ------------------------------------------------

 NO OUTPUT CONTROL FOR STRESS PERIOD   89   TIME STEP    3

 WELLS WITH REDUCED PUMPING FOR STRESS PERIOD    89 TIME STEP     3
   LAY   ROW   COL         APPL.Q          ACT.Q        GW-HEAD       CELL-BOT
     1    77   213  -0.230952E+04  -0.707992E+03   0.152404E+03   0.148000E+03
     1    92    77  -0.230952E+04  -0.394584E+03  -0.866665E+02  -0.930000E+02
     1    94    77  -0.230952E+04  -0.408572E+03  -0.959395E+02  -0.102000E+03
     1    94    73  -0.230952E+04  -0.476689E+03  -0.681003E+02  -0.740000E+02


 SOLVING FOR HEAD 
                                                   Max.-Head-Change                        Max.-Flux-Residual
  Residual-Control   Outer-Iter.   Inner-Iter.     Column Row Layer    Max.-Head-Change    Column Row Layer    Max.-Flux-Residual            L2-New               L2-Old           Solver-Max-Delh
          0                 1           3           461  449     1       0.3667183761E+00     461  449    1       0.1013343854E+04      0.9960405176E+04      0.5231995107E+02      0.3667183761E+00
          0                 2           2           461  449     1      -0.3179962189E-01     461  449    1      -0.1022046796E+03      0.9969041215E+03      0.9960405176E+04     -0.3179962189E-01

    ------------------------------------------------
       NWT REQUIRED            2 OUTER ITERATIONS 
       AND A TOTAL OF          5 INNER ITERATIONS.
    ------------------------------------------------

 NO OUTPUT CONTROL FOR STRESS PERIOD   89   TIME STEP    4

 WELLS WITH REDUCED PUMPING FOR STRESS PERIOD    89 TIME STEP     4
   LAY   ROW   COL         APPL.Q          ACT.Q        GW-HEAD       CELL-BOT
     1    77   213  -0.230952E+04  -0.704732E+03   0.152391E+03   0.148000E+03
     1    92    77  -0.230952E+04  -0.394394E+03  -0.866682E+02  -0.930000E+02
     1    94    77  -0.230952E+04  -0.405495E+03  -0.959652E+02  -0.102000E+03
     1    94    73  -0.230952E+04  -0.473243E+03  -0.681246E+02  -0.740000E+02


 SOLVING FOR HEAD 
                                                   Max.-Head-Change                        Max.-Flux-Residual
  Residual-Control   Outer-Iter.   Inner-Iter.     Column Row Layer    Max.-Head-Change    Column Row Layer    Max.-Flux-Residual            L2-New               L2-Old           Solver-Max-Delh
          0                 1           3           461  449     1       0.3272032278E+00     461  449    1       0.8787943578E+03      0.9627996463E+04      0.4985181486E+02      0.3272032278E+00
          0                 2           2           461  449     1      -0.2834042083E-01     461  449    1      -0.8839837888E+02      0.9633331692E+03      0.9627996463E+04     -0.2834042083E-01

    ------------------------------------------------
       NWT REQUIRED            2 OUTER ITERATIONS 
       AND A TOTAL OF          5 INNER ITERATIONS.
    ------------------------------------------------

 NO OUTPUT CONTROL FOR STRESS PERIOD   89   TIME STEP    5

 WELLS WITH REDUCED PUMPING FOR STRESS PERIOD    89 TIME STEP     5
   LAY   ROW   COL         APPL.Q          ACT.Q        GW-HEAD       CELL-BOT
     1    77   213  -0.230952E+04  -0.701735E+03   0.152380E+03   0.148000E+03
     1    92    77  -0.230952E+04  -0.394162E+03  -0.866703E+02  -0.930000E+02
     1    94    77  -0.230952E+04  -0.402559E+03  -0.959897E+02  -0.102000E+03
     1    94    73  -0.230952E+04  -0.469980E+03  -0.681476E+02  -0.740000E+02


 SOLVING FOR HEAD 
                                                   Max.-Head-Change                        Max.-Flux-Residual
  Residual-Control   Outer-Iter.   Inner-Iter.     Column Row Layer    Max.-Head-Change    Column Row Layer    Max.-Flux-Residual            L2-New               L2-Old           Solver-Max-Delh
          0                 1           3           461  450     1       0.2984122320E+00     461  449    1       0.7843412556E+03      0.9379096708E+04      0.4817073732E+02      0.2984122320E+00
          0                 2           2           461  450     1      -0.2582638265E-01     461  449    1      -0.7876059786E+02      0.9382407031E+03      0.9379096708E+04     -0.2582638265E-01

    ------------------------------------------------
       NWT REQUIRED            2 OUTER ITERATIONS 
       AND A TOTAL OF          5 INNER ITERATIONS.
    ------------------------------------------------

 NO OUTPUT CONTROL FOR STRESS PERIOD   89   TIME STEP    6

 WELLS WITH REDUCED PUMPING FOR STRESS PERIOD    89 TIME STEP     6
   LAY   ROW   COL         APPL.Q          ACT.Q        GW-HEAD       CELL-BOT
     1    77   213  -0.230952E+04  -0.698975E+03   0.152370E+03   0.148000E+03
     1    92    77  -0.230952E+04  -0.393911E+03  -0.866725E+02  -0.930000E+02
     1    94    77  -0.230952E+04  -0.399756E+03  -0.960132E+02  -0.102000E+03
     1    94    73  -0.230952E+04  -0.466889E+03  -0.681695E+02  -0.740000E+02


 SOLVING FOR HEAD 
                                                   Max.-Head-Change                        Max.-Flux-Residual
  Residual-Control   Outer-Iter.   Inner-Iter.     Column Row Layer    Max.-Head-Change    Column Row Layer    Max.-Flux-Residual            L2-New               L2-Old           Solver-Max-Delh
          0                 1           3           461  450     1       0.2765016075E+00     461  449    1       0.7152141135E+03      0.9181178289E+04      0.4691484538E+02      0.2765016075E+00
          0                 2           2           461  450     1      -0.2391786485E-01     461  449    1      -0.7173712969E+02      0.9184090000E+03      0.9181178289E+04     -0.2391786485E-01

    ------------------------------------------------
       NWT REQUIRED            2 OUTER ITERATIONS 
       AND A TOTAL OF          5 INNER ITERATIONS.
    ------------------------------------------------

 NO OUTPUT CONTROL FOR STRESS PERIOD   89   TIME STEP    7

 WELLS WITH REDUCED PUMPING FOR STRESS PERIOD    89 TIME STEP     7
   LAY   ROW   COL         APPL.Q          ACT.Q        GW-HEAD       CELL-BOT
     1    77   213  -0.230952E+04  -0.696430E+03   0.152361E+03   0.148000E+03
     1    92    77  -0.230952E+04  -0.393650E+03  -0.866749E+02  -0.930000E+02
     1    94    77  -0.230952E+04  -0.397079E+03  -0.960357E+02  -0.102000E+03
     1    94    73  -0.230952E+04  -0.463960E+03  -0.681903E+02  -0.740000E+02


 SOLVING FOR HEAD 
                                                   Max.-Head-Change                        Max.-Flux-Residual
  Residual-Control   Outer-Iter.   Inner-Iter.     Column Row Layer    Max.-Head-Change    Column Row Layer    Max.-Flux-Residual            L2-New               L2-Old           Solver-Max-Delh
          0                 1           3           197   82     1      -0.2644527554E+00     461  449    1       0.6624686380E+03      0.9016830058E+04      0.4592732789E+02     -0.2644527554E+00
          0                 2           2            52   88     1      -0.1199441227E+00      52   88    1      -0.6902391177E+02      0.9045308086E+03      0.9016830058E+04     -0.1199441227E+00
          0                 3           2            52   88     1      -0.6001406973E-02      52   88    1      -0.3453351550E+01      0.4522832504E+02      0.9045308086E+03     -0.6001406973E-02

    ------------------------------------------------
       NWT REQUIRED            3 OUTER ITERATIONS 
       AND A TOTAL OF          7 INNER ITERATIONS.
    ------------------------------------------------

 NO OUTPUT CONTROL FOR STRESS PERIOD   89   TIME STEP    8

 WELLS WITH REDUCED PUMPING FOR STRESS PERIOD    89 TIME STEP     8
   LAY   ROW   COL         APPL.Q          ACT.Q        GW-HEAD       CELL-BOT
     1    77   213  -0.230952E+04  -0.694090E+03   0.152352E+03   0.148000E+03
     1    92    77  -0.230952E+04  -0.393387E+03  -0.866772E+02  -0.930000E+02
     1    94    77  -0.230952E+04  -0.394534E+03  -0.960571E+02  -0.102000E+03
     1    94    73  -0.230952E+04  -0.461196E+03  -0.682099E+02  -0.740000E+02


 SOLVING FOR HEAD 
                                                   Max.-Head-Change                        Max.-Flux-Residual
  Residual-Control   Outer-Iter.   Inner-Iter.     Column Row Layer    Max.-Head-Change    Column Row Layer    Max.-Flux-Residual            L2-New               L2-Old           Solver-Max-Delh
          0                 1           3           197   82     1      -0.2616975601E+00     197   82    1      -0.6337868780E+03      0.8876517655E+04      0.4522832504E+02     -0.2616975601E+00
          0                 2           2            51   87     1      -0.3731704141E-01     463  453    1      -0.6415639979E+02      0.8880919954E+03      0.8876517655E+04     -0.3731704141E-01

    ------------------------------------------------
       NWT REQUIRED            2 OUTER ITERATIONS 
       AND A TOTAL OF          5 INNER ITERATIONS.
    ------------------------------------------------

 NO OUTPUT CONTROL FOR STRESS PERIOD   89   TIME STEP    9

 WELLS WITH REDUCED PUMPING FOR STRESS PERIOD    89 TIME STEP     9
   LAY   ROW   COL         APPL.Q          ACT.Q        GW-HEAD       CELL-BOT
     1    77   213  -0.230952E+04  -0.691911E+03   0.152344E+03   0.148000E+03
     1    92    77  -0.230952E+04  -0.393124E+03  -0.866796E+02  -0.930000E+02
     1    94    77  -0.230952E+04  -0.392090E+03  -0.960777E+02  -0.102000E+03
     1    94    73  -0.230952E+04  -0.458563E+03  -0.682287E+02  -0.740000E+02


 SOLVING FOR HEAD 
                                                   Max.-Head-Change                        Max.-Flux-Residual
  Residual-Control   Outer-Iter.   Inner-Iter.     Column Row Layer    Max.-Head-Change    Column Row Layer    Max.-Flux-Residual            L2-New               L2-Old           Solver-Max-Delh
          0                 1           3           197   82     1      -0.2589789867E+00     197   82    1      -0.6271449245E+03      0.8752667032E+04      0.4440593451E+02     -0.2589789867E+00
          0                 2           2           197   82     1       0.2236215415E-01     197   82    1       0.6269998851E+02      0.8754134704E+03      0.8752667032E+04      0.2236215415E-01

    ------------------------------------------------
       NWT REQUIRED            2 OUTER ITERATIONS 
       AND A TOTAL OF          5 INNER ITERATIONS.
    ------------------------------------------------

 OUTPUT CONTROL FOR STRESS PERIOD   89   TIME STEP   10
    SAVE HEAD FOR ALL LAYERS

 WELLS WITH REDUCED PUMPING FOR STRESS PERIOD    89 TIME STEP    10
   LAY   ROW   COL         APPL.Q          ACT.Q        GW-HEAD       CELL-BOT
     1    77   213  -0.230952E+04  -0.689890E+03   0.152336E+03   0.148000E+03
     1    92    77  -0.230952E+04  -0.392862E+03  -0.866819E+02  -0.930000E+02
     1    94    77  -0.230952E+04  -0.389755E+03  -0.960974E+02  -0.102000E+03
     1    94    73  -0.230952E+04  -0.456066E+03  -0.682465E+02  -0.740000E+02


 HEAD WILL BE SAVED ON UNIT   51 AT END OF TIME STEP   10, STRESS PERIOD   89
1
  VOLUMETRIC BUDGET FOR ENTIRE MODEL AT END OF TIME STEP   10, STRESS PERIOD  89
  ------------------------------------------------------------------------------

     CUMULATIVE VOLUMES      L**3       RATES FOR THIS TIME STEP      L**3/T
     ------------------                 ------------------------

           IN:                                      IN:
           ---                                      ---
             STORAGE =   850655488.0000               STORAGE =      388741.0938
       CONSTANT HEAD =   138607920.0000         CONSTANT HEAD =       52183.2031
               WELLS =           0.0000                 WELLS =           0.0000
              DRAINS =           0.0000                DRAINS =           0.0000
                  ET =           0.0000                    ET =           0.0000
            RECHARGE =   469098368.0000              RECHARGE =      201615.9062

            TOTAL IN =  1458361856.0000              TOTAL IN =      642540.2500

          OUT:                                     OUT:
          ----                                     ----
             STORAGE =   240439792.0000               STORAGE =       77401.3984
       CONSTANT HEAD =           0.0000         CONSTANT HEAD =           0.0000
               WELLS =   820498624.0000                 WELLS =      479075.2188
              DRAINS =   281358336.0000                DRAINS =       59794.4336
                  ET =   113573416.0000                    ET =       24719.3027
            RECHARGE =      525047.1875              RECHARGE =           0.0000

           TOTAL OUT =  1456395264.0000             TOTAL OUT =      640990.3750

            IN - OUT =     1966592.0000              IN - OUT =        1549.8750

 PERCENT DISCREPANCY =           0.13     PERCENT DISCREPANCY =           0.24






         TIME SUMMARY AT END OF TIME STEP   10 IN STRESS PERIOD   89
                    SECONDS     MINUTES      HOURS       DAYS        YEARS
                    -----------------------------------------------------------
   TIME STEP LENGTH 2.62656E+05  4377.6      72.960      3.0400     8.32307E-03
 STRESS PERIOD TIME 2.62656E+06  43776.      729.60      30.400     8.32307E-02
         TOTAL TIME 2.33765E+08 3.89609E+06  64935.      2705.6      7.4076    
1
1
                            STRESS PERIOD NO.   90, LENGTH =   30.40000    
                            -----------------------------------------------

                              NUMBER OF TIME STEPS =    10

                               MULTIPLIER FOR DELT =     1.000

                            INITIAL TIME STEP SIZE =   3.040000    

 REUSING NON-PARAMETER WELLS FROM LAST STRESS PERIOD

    188 WELLS

 REUSING NON-PARAMETER DRAINS FROM LAST STRESS PERIOD

   1061 DRAINS

 REUSING SURF FROM LAST STRESS PERIOD

 REUSING EVTR FROM LAST STRESS PERIOD

 REUSING EXDP FROM LAST STRESS PERIOD



                           RECHARGE
 READING ON UNIT   19 WITH FORMAT: (510E15.6)          

 SOLVING FOR HEAD 
                                                   Max.-Head-Change                        Max.-Flux-Residual
  Residual-Control   Outer-Iter.   Inner-Iter.     Column Row Layer    Max.-Head-Change    Column Row Layer    Max.-Flux-Residual            L2-New               L2-Old           Solver-Max-Delh
          0                 1           3           461  449     1      -0.5329138381E+00     464  446    1      -0.1698721854E+04      0.1314512785E+05      0.4377178655E+02     -0.5329138381E+00
          0                 2           2           461  449     1       0.4568534757E-01     462  453    1       0.3236994327E+03      0.1331380068E+04      0.1314512785E+05      0.4568534757E-01

    ------------------------------------------------
       NWT REQUIRED            2 OUTER ITERATIONS 
       AND A TOTAL OF          5 INNER ITERATIONS.
    ------------------------------------------------

 NO OUTPUT CONTROL FOR STRESS PERIOD   90   TIME STEP    1

 WELLS WITH REDUCED PUMPING FOR STRESS PERIOD    90 TIME STEP     1
   LAY   ROW   COL         APPL.Q          ACT.Q        GW-HEAD       CELL-BOT
     1    77   213  -0.230952E+04  -0.690059E+03   0.152337E+03   0.148000E+03
     1    92    77  -0.230952E+04  -0.402706E+03  -0.865938E+02  -0.930000E+02
     1    94    77  -0.230952E+04  -0.388464E+03  -0.961084E+02  -0.102000E+03
     1    94    73  -0.230952E+04  -0.454803E+03  -0.682556E+02  -0.740000E+02


 SOLVING FOR HEAD 
                                                   Max.-Head-Change                        Max.-Flux-Residual
  Residual-Control   Outer-Iter.   Inner-Iter.     Column Row Layer    Max.-Head-Change    Column Row Layer    Max.-Flux-Residual            L2-New               L2-Old           Solver-Max-Delh
          0                 1           3           461  449     1      -0.3940929502E+00     461  449    1      -0.1278012598E+04      0.9303448245E+04      0.6644876721E+02     -0.3940929502E+00
          0                 2           2           194   79     1      -0.7259074755E-01     461  449    1       0.1253538607E+03      0.9277993262E+03      0.9303448245E+04     -0.7259074755E-01

    ------------------------------------------------
       NWT REQUIRED            2 OUTER ITERATIONS 
       AND A TOTAL OF          5 INNER ITERATIONS.
    ------------------------------------------------

 NO OUTPUT CONTROL FOR STRESS PERIOD   90   TIME STEP    2

 WELLS WITH REDUCED PUMPING FOR STRESS PERIOD    90 TIME STEP     2
   LAY   ROW   COL         APPL.Q          ACT.Q        GW-HEAD       CELL-BOT
     1    77   213  -0.230952E+04  -0.690192E+03   0.152337E+03   0.148000E+03
     1    92    77  -0.230952E+04  -0.408048E+03  -0.865463E+02  -0.930000E+02
     1    94    77  -0.230952E+04  -0.387228E+03  -0.961188E+02  -0.102000E+03
     1    94    73  -0.230952E+04  -0.453604E+03  -0.682641E+02  -0.740000E+02


 SOLVING FOR HEAD 
                                                   Max.-Head-Change                        Max.-Flux-Residual
  Residual-Control   Outer-Iter.   Inner-Iter.     Column Row Layer    Max.-Head-Change    Column Row Layer    Max.-Flux-Residual            L2-New               L2-Old           Solver-Max-Delh
          0                 1           3           461  449     1      -0.2978739422E+00     461  449    1      -0.9448492175E+03      0.7927014687E+04      0.4636501789E+02     -0.2978739422E+00
          0                 2           2           461  449     1       0.2556635899E-01     461  449    1       0.9318624241E+02      0.7914400996E+03      0.7927014687E+04      0.2556635899E-01

    ------------------------------------------------
       NWT REQUIRED            2 OUTER ITERATIONS 
       AND A TOTAL OF          5 INNER ITERATIONS.
    ------------------------------------------------

 NO OUTPUT CONTROL FOR STRESS PERIOD   90   TIME STEP    3

 WELLS WITH REDUCED PUMPING FOR STRESS PERIOD    90 TIME STEP     3
   LAY   ROW   COL         APPL.Q          ACT.Q        GW-HEAD       CELL-BOT
     1    77   213  -0.230952E+04  -0.690291E+03   0.152338E+03   0.148000E+03
     1    92    77  -0.230952E+04  -0.410962E+03  -0.865205E+02  -0.930000E+02
     1    94    77  -0.230952E+04  -0.386044E+03  -0.961289E+02  -0.102000E+03
     1    94    73  -0.230952E+04  -0.452464E+03  -0.682723E+02  -0.740000E+02


 SOLVING FOR HEAD 
                                                   Max.-Head-Change                        Max.-Flux-Residual
  Residual-Control   Outer-Iter.   Inner-Iter.     Column Row Layer    Max.-Head-Change    Column Row Layer    Max.-Flux-Residual            L2-New               L2-Old           Solver-Max-Delh
          0                 1           3           197   82     1      -0.2393263110E+00     461  449    1      -0.7140332845E+03      0.7218592446E+04      0.3956297512E+02     -0.2393263110E+00
          0                 2           2           197   82     1       0.2066556095E-01     461  449    1       0.7072737467E+02      0.7213068138E+03      0.7218592446E+04      0.2066556095E-01

    ------------------------------------------------
       NWT REQUIRED            2 OUTER ITERATIONS 
       AND A TOTAL OF          5 INNER ITERATIONS.
    ------------------------------------------------

 NO OUTPUT CONTROL FOR STRESS PERIOD   90   TIME STEP    4

 WELLS WITH REDUCED PUMPING FOR STRESS PERIOD    90 TIME STEP     4
   LAY   ROW   COL         APPL.Q          ACT.Q        GW-HEAD       CELL-BOT
     1    77   213  -0.230952E+04  -0.690360E+03   0.152338E+03   0.148000E+03
     1    92    77  -0.230952E+04  -0.412577E+03  -0.865062E+02  -0.930000E+02
     1    94    77  -0.230952E+04  -0.384911E+03  -0.961385E+02  -0.102000E+03
     1    94    73  -0.230952E+04  -0.451382E+03  -0.682801E+02  -0.740000E+02


 SOLVING FOR HEAD 
                                                   Max.-Head-Change                        Max.-Flux-Residual
  Residual-Control   Outer-Iter.   Inner-Iter.     Column Row Layer    Max.-Head-Change    Column Row Layer    Max.-Flux-Residual            L2-New               L2-Old           Solver-Max-Delh
          0                 1           3           197   82     1      -0.2368082693E+00     197   82    1      -0.5734996294E+03      0.6809257999E+04      0.3606131354E+02     -0.2368082693E+00
          0                 2           2           197   82     1       0.2044815093E-01     197   82    1       0.5733800234E+02      0.6806421481E+03      0.6809257999E+04      0.2044815093E-01

    ------------------------------------------------
       NWT REQUIRED            2 OUTER ITERATIONS 
       AND A TOTAL OF          5 INNER ITERATIONS.
    ------------------------------------------------

 NO OUTPUT CONTROL FOR STRESS PERIOD   90   TIME STEP    5

 WELLS WITH REDUCED PUMPING FOR STRESS PERIOD    90 TIME STEP     5
   LAY   ROW   COL         APPL.Q          ACT.Q        GW-HEAD       CELL-BOT
     1    77   213  -0.230952E+04  -0.690402E+03   0.152338E+03   0.148000E+03
     1    92    77  -0.230952E+04  -0.413497E+03  -0.864981E+02  -0.930000E+02
     1    94    77  -0.230952E+04  -0.383826E+03  -0.961478E+02  -0.102000E+03
     1    94    73  -0.230952E+04  -0.450353E+03  -0.682874E+02  -0.740000E+02


 SOLVING FOR HEAD 
                                                   Max.-Head-Change                        Max.-Flux-Residual
  Residual-Control   Outer-Iter.   Inner-Iter.     Column Row Layer    Max.-Head-Change    Column Row Layer    Max.-Flux-Residual            L2-New               L2-Old           Solver-Max-Delh
          0                 1           3           197   82     1      -0.2343362711E+00     197   82    1      -0.5674596655E+03      0.6555150024E+04      0.3403001952E+02     -0.2343362711E+00
          0                 2           2           197   82     1       0.2023471630E-01     197   82    1       0.5673420010E+02      0.6555318520E+03      0.6555150024E+04      0.2023471630E-01

    ------------------------------------------------
       NWT REQUIRED            2 OUTER ITERATIONS 
       AND A TOTAL OF          5 INNER ITERATIONS.
    ------------------------------------------------

 NO OUTPUT CONTROL FOR STRESS PERIOD   90   TIME STEP    6

 WELLS WITH REDUCED PUMPING FOR STRESS PERIOD    90 TIME STEP     6
   LAY   ROW   COL         APPL.Q          ACT.Q        GW-HEAD       CELL-BOT
     1    77   213  -0.230952E+04  -0.690419E+03   0.152338E+03   0.148000E+03
     1    92    77  -0.230952E+04  -0.414047E+03  -0.864932E+02  -0.930000E+02
     1    94    77  -0.230952E+04  -0.382786E+03  -0.961566E+02  -0.102000E+03
     1    94    73  -0.230952E+04  -0.449376E+03  -0.682945E+02  -0.740000E+02


 SOLVING FOR HEAD 
                                                   Max.-Head-Change                        Max.-Flux-Residual
  Residual-Control   Outer-Iter.   Inner-Iter.     Column Row Layer    Max.-Head-Change    Column Row Layer    Max.-Flux-Residual            L2-New               L2-Old           Solver-Max-Delh
          0                 1           3           197   82     1      -0.2319092599E+00     197   82    1      -0.5615302374E+03      0.6388482622E+04      0.3277529346E+02     -0.2319092599E+00
          0                 2           2           203   77     1      -0.5091912414E-01     197   82    1       0.5614144776E+02      0.6394092375E+03      0.6388482622E+04     -0.5091912414E-01

    ------------------------------------------------
       NWT REQUIRED            2 OUTER ITERATIONS 
       AND A TOTAL OF          5 INNER ITERATIONS.
    ------------------------------------------------

 NO OUTPUT CONTROL FOR STRESS PERIOD   90   TIME STEP    7

 WELLS WITH REDUCED PUMPING FOR STRESS PERIOD    90 TIME STEP     7
   LAY   ROW   COL         APPL.Q          ACT.Q        GW-HEAD       CELL-BOT
     1    77   213  -0.230952E+04  -0.690414E+03   0.152338E+03   0.148000E+03
     1    92    77  -0.230952E+04  -0.414398E+03  -0.864901E+02  -0.930000E+02
     1    94    77  -0.230952E+04  -0.381790E+03  -0.961651E+02  -0.102000E+03
     1    94    73  -0.230952E+04  -0.448446E+03  -0.683011E+02  -0.740000E+02


 SOLVING FOR HEAD 
                                                   Max.-Head-Change                        Max.-Flux-Residual
  Residual-Control   Outer-Iter.   Inner-Iter.     Column Row Layer    Max.-Head-Change    Column Row Layer    Max.-Flux-Residual            L2-New               L2-Old           Solver-Max-Delh
          0                 1           3           197   82     1      -0.2295262605E+00     197   82    1      -0.5557088772E+03      0.6273894751E+04      0.3196966890E+02     -0.2295262605E+00
          0                 2           2           197   82     1       0.1981941546E-01     197   82    1       0.5555949854E+02      0.6273093809E+03      0.6273894751E+04      0.1981941546E-01

    ------------------------------------------------
       NWT REQUIRED            2 OUTER ITERATIONS 
       AND A TOTAL OF          5 INNER ITERATIONS.
    ------------------------------------------------

 NO OUTPUT CONTROL FOR STRESS PERIOD   90   TIME STEP    8

 WELLS WITH REDUCED PUMPING FOR STRESS PERIOD    90 TIME STEP     8
   LAY   ROW   COL         APPL.Q          ACT.Q        GW-HEAD       CELL-BOT
     1    77   213  -0.230952E+04  -0.690389E+03   0.152338E+03   0.148000E+03
     1    92    77  -0.230952E+04  -0.414643E+03  -0.864880E+02  -0.930000E+02
     1    94    77  -0.230952E+04  -0.380836E+03  -0.961732E+02  -0.102000E+03
     1    94    73  -0.230952E+04  -0.447562E+03  -0.683075E+02  -0.740000E+02


 SOLVING FOR HEAD 
                                                   Max.-Head-Change                        Max.-Flux-Residual
  Residual-Control   Outer-Iter.   Inner-Iter.     Column Row Layer    Max.-Head-Change    Column Row Layer    Max.-Flux-Residual            L2-New               L2-Old           Solver-Max-Delh
          0                 1           3           197   82     1      -0.2271862342E+00     197   82    1      -0.5499929813E+03      0.6191712971E+04      0.3136492136E+02     -0.2271862342E+00
          0                 2           2           197   82     1       0.1961737530E-01     197   82    1       0.5498809205E+02      0.6191113193E+03      0.6191712971E+04      0.1961737530E-01

    ------------------------------------------------
       NWT REQUIRED            2 OUTER ITERATIONS 
       AND A TOTAL OF          5 INNER ITERATIONS.
    ------------------------------------------------

 NO OUTPUT CONTROL FOR STRESS PERIOD   90   TIME STEP    9

 WELLS WITH REDUCED PUMPING FOR STRESS PERIOD    90 TIME STEP     9
   LAY   ROW   COL         APPL.Q          ACT.Q        GW-HEAD       CELL-BOT
     1    77   213  -0.230952E+04  -0.690346E+03   0.152338E+03   0.148000E+03
     1    92    77  -0.230952E+04  -0.414829E+03  -0.864863E+02  -0.930000E+02
     1    94    77  -0.230952E+04  -0.379921E+03  -0.961810E+02  -0.102000E+03
     1    94    73  -0.230952E+04  -0.446722E+03  -0.683135E+02  -0.740000E+02


 SOLVING FOR HEAD 
                                                   Max.-Head-Change                        Max.-Flux-Residual
  Residual-Control   Outer-Iter.   Inner-Iter.     Column Row Layer    Max.-Head-Change    Column Row Layer    Max.-Flux-Residual            L2-New               L2-Old           Solver-Max-Delh
          0                 1           3           197   82     1      -0.2248882938E+00     197   82    1      -0.5443803238E+03      0.6130429265E+04      0.3095510439E+02     -0.2248882938E+00
          0                 2           2           204   74     1      -0.6679383381E-01     197   82    1       0.5442700576E+02      0.6141919782E+03      0.6130429265E+04     -0.6679383381E-01

    ------------------------------------------------
       NWT REQUIRED            2 OUTER ITERATIONS 
       AND A TOTAL OF          5 INNER ITERATIONS.
    ------------------------------------------------

 OUTPUT CONTROL FOR STRESS PERIOD   90   TIME STEP   10
    SAVE HEAD FOR ALL LAYERS

 WELLS WITH REDUCED PUMPING FOR STRESS PERIOD    90 TIME STEP    10
   LAY   ROW   COL         APPL.Q          ACT.Q        GW-HEAD       CELL-BOT
     1    77   213  -0.230952E+04  -0.690285E+03   0.152338E+03   0.148000E+03
     1    92    77  -0.230952E+04  -0.414983E+03  -0.864850E+02  -0.930000E+02
     1    94    77  -0.230952E+04  -0.379044E+03  -0.961885E+02  -0.102000E+03
     1    94    73  -0.230952E+04  -0.445922E+03  -0.683193E+02  -0.740000E+02


 HEAD WILL BE SAVED ON UNIT   51 AT END OF TIME STEP   10, STRESS PERIOD   90
1
  VOLUMETRIC BUDGET FOR ENTIRE MODEL AT END OF TIME STEP   10, STRESS PERIOD  90
  ------------------------------------------------------------------------------

     CUMULATIVE VOLUMES      L**3       RATES FOR THIS TIME STEP      L**3/T
     ------------------                 ------------------------

           IN:                                      IN:
           ---                                      ---
             STORAGE =   861603840.0000               STORAGE =      351275.6875
       CONSTANT HEAD =   140194320.0000         CONSTANT HEAD =       52184.4141
               WELLS =           0.0000                 WELLS =           0.0000
              DRAINS =           0.0000                DRAINS =           0.0000
                  ET =           0.0000                    ET =           0.0000
            RECHARGE =   474258688.0000              RECHARGE =      169742.7500

            TOTAL IN =  1476056832.0000              TOTAL IN =      573202.8750

          OUT:                                     OUT:
          ----                                     ----
             STORAGE =   240962336.0000               STORAGE =        8680.6406
       CONSTANT HEAD =           0.0000         CONSTANT HEAD =           0.0000
               WELLS =   835062720.0000                 WELLS =      479076.8750
              DRAINS =   283164800.0000                DRAINS =       59175.2852
                  ET =   114323296.0000                    ET =       24567.2266
            RECHARGE =      525047.1875              RECHARGE =           0.0000

           TOTAL OUT =  1474038272.0000             TOTAL OUT =      571500.0625

            IN - OUT =     2018560.0000              IN - OUT =        1702.8125

 PERCENT DISCREPANCY =           0.14     PERCENT DISCREPANCY =           0.30






         TIME SUMMARY AT END OF TIME STEP   10 IN STRESS PERIOD   90
                    SECONDS     MINUTES      HOURS       DAYS        YEARS
                    -----------------------------------------------------------
   TIME STEP LENGTH 2.62656E+05  4377.6      72.960      3.0400     8.32307E-03
 STRESS PERIOD TIME 2.62656E+06  43776.      729.60      30.400     8.32307E-02
         TOTAL TIME 2.36392E+08 3.93987E+06  65664.      2736.0      7.4908    
1
1
                            STRESS PERIOD NO.   91, LENGTH =   30.40000    
                            -----------------------------------------------

                              NUMBER OF TIME STEPS =    10

                               MULTIPLIER FOR DELT =     1.000

                            INITIAL TIME STEP SIZE =   3.040000    

 REUSING NON-PARAMETER WELLS FROM LAST STRESS PERIOD

    188 WELLS

 REUSING NON-PARAMETER DRAINS FROM LAST STRESS PERIOD

   1061 DRAINS

 REUSING SURF FROM LAST STRESS PERIOD

 REUSING EVTR FROM LAST STRESS PERIOD

 REUSING EXDP FROM LAST STRESS PERIOD



                           RECHARGE
 READING ON UNIT   19 WITH FORMAT: (510E15.6)          

 SOLVING FOR HEAD 
                                                   Max.-Head-Change                        Max.-Flux-Residual
  Residual-Control   Outer-Iter.   Inner-Iter.     Column Row Layer    Max.-Head-Change    Column Row Layer    Max.-Flux-Residual            L2-New               L2-Old           Solver-Max-Delh
          0                 1           3           197   82     1      -0.2224359208E+00     197   82    1      -0.5384015054E+03      0.6453548966E+04      0.3070926629E+02     -0.2224359208E+00
          0                 2           2           197   82     1       0.1920723178E-01     197   82    1       0.5382932690E+02      0.6451741138E+03      0.6453548966E+04      0.1920723178E-01

    ------------------------------------------------
       NWT REQUIRED            2 OUTER ITERATIONS 
       AND A TOTAL OF          5 INNER ITERATIONS.
    ------------------------------------------------

 NO OUTPUT CONTROL FOR STRESS PERIOD   91   TIME STEP    1

 WELLS WITH REDUCED PUMPING FOR STRESS PERIOD    91 TIME STEP     1
   LAY   ROW   COL         APPL.Q          ACT.Q        GW-HEAD       CELL-BOT
     1    77   213  -0.230952E+04  -0.690254E+03   0.152337E+03   0.148000E+03
     1    92    77  -0.230952E+04  -0.415336E+03  -0.864819E+02  -0.930000E+02
     1    94    77  -0.230952E+04  -0.378224E+03  -0.961956E+02  -0.102000E+03
     1    94    73  -0.230952E+04  -0.445185E+03  -0.683246E+02  -0.740000E+02


 SOLVING FOR HEAD 
                                                   Max.-Head-Change                        Max.-Flux-Residual
  Residual-Control   Outer-Iter.   Inner-Iter.     Column Row Layer    Max.-Head-Change    Column Row Layer    Max.-Flux-Residual            L2-New               L2-Old           Solver-Max-Delh
          0                 1           3           197   82     1      -0.2202190104E+00     197   82    1      -0.5329871278E+03      0.6345238506E+04      0.3225747022E+02     -0.2202190104E+00
          0                 2           2           197   82     1       0.1901582092E-01     197   82    1       0.5328806047E+02      0.6344336516E+03      0.6345238506E+04      0.1901582092E-01

    ------------------------------------------------
       NWT REQUIRED            2 OUTER ITERATIONS 
       AND A TOTAL OF          5 INNER ITERATIONS.
    ------------------------------------------------

 NO OUTPUT CONTROL FOR STRESS PERIOD   91   TIME STEP    2

 WELLS WITH REDUCED PUMPING FOR STRESS PERIOD    91 TIME STEP     2
   LAY   ROW   COL         APPL.Q          ACT.Q        GW-HEAD       CELL-BOT
     1    77   213  -0.230952E+04  -0.690205E+03   0.152337E+03   0.148000E+03
     1    92    77  -0.230952E+04  -0.415580E+03  -0.864797E+02  -0.930000E+02
     1    94    77  -0.230952E+04  -0.377436E+03  -0.962023E+02  -0.102000E+03
     1    94    73  -0.230952E+04  -0.444483E+03  -0.683297E+02  -0.740000E+02


 SOLVING FOR HEAD 
                                                   Max.-Head-Change                        Max.-Flux-Residual
  Residual-Control   Outer-Iter.   Inner-Iter.     Column Row Layer    Max.-Head-Change    Column Row Layer    Max.-Flux-Residual            L2-New               L2-Old           Solver-Max-Delh
          0                 1           3           197   82     1      -0.2180417818E+00     197   82    1      -0.5276699516E+03      0.6279948874E+04      0.3172102302E+02     -0.2180417818E+00
          0                 2           2           197   82     1       0.1882783614E-01     197   82    1       0.5275651067E+02      0.6279303280E+03      0.6279948874E+04      0.1882783614E-01

    ------------------------------------------------
       NWT REQUIRED            2 OUTER ITERATIONS 
       AND A TOTAL OF          5 INNER ITERATIONS.
    ------------------------------------------------

 NO OUTPUT CONTROL FOR STRESS PERIOD   91   TIME STEP    3

 WELLS WITH REDUCED PUMPING FOR STRESS PERIOD    91 TIME STEP     3
   LAY   ROW   COL         APPL.Q          ACT.Q        GW-HEAD       CELL-BOT
     1    77   213  -0.230952E+04  -0.690141E+03   0.152337E+03   0.148000E+03
     1    92    77  -0.230952E+04  -0.415764E+03  -0.864781E+02  -0.930000E+02
     1    94    77  -0.230952E+04  -0.376681E+03  -0.962088E+02  -0.102000E+03
     1    94    73  -0.230952E+04  -0.443814E+03  -0.683345E+02  -0.740000E+02


 SOLVING FOR HEAD 
                                                   Max.-Head-Change                        Max.-Flux-Residual
  Residual-Control   Outer-Iter.   Inner-Iter.     Column Row Layer    Max.-Head-Change    Column Row Layer    Max.-Flux-Residual            L2-New               L2-Old           Solver-Max-Delh
          0                 1           3           197   82     1      -0.2159033670E+00     197   82    1      -0.5224479880E+03      0.6231026547E+04      0.3139604449E+02     -0.2159033670E+00
          0                 2           2           197   82     1       0.1864320251E-01     197   82    1       0.5223447880E+02      0.6230507335E+03      0.6231026547E+04      0.1864320251E-01

    ------------------------------------------------
       NWT REQUIRED            2 OUTER ITERATIONS 
       AND A TOTAL OF          5 INNER ITERATIONS.
    ------------------------------------------------

 NO OUTPUT CONTROL FOR STRESS PERIOD   91   TIME STEP    4

 WELLS WITH REDUCED PUMPING FOR STRESS PERIOD    91 TIME STEP     4
   LAY   ROW   COL         APPL.Q          ACT.Q        GW-HEAD       CELL-BOT
     1    77   213  -0.230952E+04  -0.690062E+03   0.152337E+03   0.148000E+03
     1    92    77  -0.230952E+04  -0.415915E+03  -0.864768E+02  -0.930000E+02
     1    94    77  -0.230952E+04  -0.375957E+03  -0.962150E+02  -0.102000E+03
     1    94    73  -0.230952E+04  -0.443178E+03  -0.683391E+02  -0.740000E+02


 SOLVING FOR HEAD 
                                                   Max.-Head-Change                        Max.-Flux-Residual
  Residual-Control   Outer-Iter.   Inner-Iter.     Column Row Layer    Max.-Head-Change    Column Row Layer    Max.-Flux-Residual            L2-New               L2-Old           Solver-Max-Delh
          0                 1           3           197   82     1      -0.2138029861E+00     197   82    1      -0.5173192811E+03      0.6191813779E+04      0.3115299432E+02     -0.2138029861E+00
          0                 2           2           197   82     1       0.1846185272E-01     197   82    1       0.5172176931E+02      0.6191512360E+03      0.6191813779E+04      0.1846185272E-01

    ------------------------------------------------
       NWT REQUIRED            2 OUTER ITERATIONS 
       AND A TOTAL OF          5 INNER ITERATIONS.
    ------------------------------------------------

 NO OUTPUT CONTROL FOR STRESS PERIOD   91   TIME STEP    5

 WELLS WITH REDUCED PUMPING FOR STRESS PERIOD    91 TIME STEP     5
   LAY   ROW   COL         APPL.Q          ACT.Q        GW-HEAD       CELL-BOT
     1    77   213  -0.230952E+04  -0.689970E+03   0.152336E+03   0.148000E+03
     1    92    77  -0.230952E+04  -0.416047E+03  -0.864756E+02  -0.930000E+02
     1    94    77  -0.230952E+04  -0.375262E+03  -0.962209E+02  -0.102000E+03
     1    94    73  -0.230952E+04  -0.442572E+03  -0.683435E+02  -0.740000E+02


 SOLVING FOR HEAD 
                                                   Max.-Head-Change                        Max.-Flux-Residual
  Residual-Control   Outer-Iter.   Inner-Iter.     Column Row Layer    Max.-Head-Change    Column Row Layer    Max.-Flux-Residual            L2-New               L2-Old           Solver-Max-Delh
          0                 1           3           197   82     1      -0.2117398154E+00     197   82    1      -0.5122817699E+03      0.6159079291E+04      0.3095723021E+02     -0.2117398154E+00
          0                 2           2           197   82     1       0.1828371554E-01     197   82    1       0.5121817605E+02      0.6158666479E+03      0.6159079291E+04      0.1828371554E-01

    ------------------------------------------------
       NWT REQUIRED            2 OUTER ITERATIONS 
       AND A TOTAL OF          5 INNER ITERATIONS.
    ------------------------------------------------

 NO OUTPUT CONTROL FOR STRESS PERIOD   91   TIME STEP    6

 WELLS WITH REDUCED PUMPING FOR STRESS PERIOD    91 TIME STEP     6
   LAY   ROW   COL         APPL.Q          ACT.Q        GW-HEAD       CELL-BOT
     1    77   213  -0.230952E+04  -0.689867E+03   0.152336E+03   0.148000E+03
     1    92    77  -0.230952E+04  -0.416167E+03  -0.864745E+02  -0.930000E+02
     1    94    77  -0.230952E+04  -0.374594E+03  -0.962267E+02  -0.102000E+03
     1    94    73  -0.230952E+04  -0.441995E+03  -0.683476E+02  -0.740000E+02


 SOLVING FOR HEAD 
                                                   Max.-Head-Change                        Max.-Flux-Residual
  Residual-Control   Outer-Iter.   Inner-Iter.     Column Row Layer    Max.-Head-Change    Column Row Layer    Max.-Flux-Residual            L2-New               L2-Old           Solver-Max-Delh
          0                 1           3           197   82     1      -0.2097130886E+00     197   82    1      -0.5073335430E+03      0.6130973257E+04      0.3079303163E+02     -0.2097130886E+00
          0                 2           2           197   82     1       0.1810872487E-01     197   82    1       0.5072350794E+02      0.6130654897E+03      0.6130973257E+04      0.1810872487E-01

    ------------------------------------------------
       NWT REQUIRED            2 OUTER ITERATIONS 
       AND A TOTAL OF          5 INNER ITERATIONS.
    ------------------------------------------------

 NO OUTPUT CONTROL FOR STRESS PERIOD   91   TIME STEP    7

 WELLS WITH REDUCED PUMPING FOR STRESS PERIOD    91 TIME STEP     7
   LAY   ROW   COL         APPL.Q          ACT.Q        GW-HEAD       CELL-BOT
     1    77   213  -0.230952E+04  -0.689753E+03   0.152336E+03   0.148000E+03
     1    92    77  -0.230952E+04  -0.416281E+03  -0.864735E+02  -0.930000E+02
     1    94    77  -0.230952E+04  -0.373954E+03  -0.962322E+02  -0.102000E+03
     1    94    73  -0.230952E+04  -0.441445E+03  -0.683516E+02  -0.740000E+02


 SOLVING FOR HEAD 
                                                   Max.-Head-Change                        Max.-Flux-Residual
  Residual-Control   Outer-Iter.   Inner-Iter.     Column Row Layer    Max.-Head-Change    Column Row Layer    Max.-Flux-Residual            L2-New               L2-Old           Solver-Max-Delh
          0                 1           3           197   82     1      -0.2077220889E+00     197   82    1      -0.5024728256E+03      0.6106314698E+04      0.3065299571E+02     -0.2077220889E+00
          0                 2           2           197   82     1       0.1793681878E-01     197   82    1       0.5023758757E+02      0.6105967470E+03      0.6106314698E+04      0.1793681878E-01

    ------------------------------------------------
       NWT REQUIRED            2 OUTER ITERATIONS 
       AND A TOTAL OF          5 INNER ITERATIONS.
    ------------------------------------------------

 NO OUTPUT CONTROL FOR STRESS PERIOD   91   TIME STEP    8

 WELLS WITH REDUCED PUMPING FOR STRESS PERIOD    91 TIME STEP     8
   LAY   ROW   COL         APPL.Q          ACT.Q        GW-HEAD       CELL-BOT
     1    77   213  -0.230952E+04  -0.689629E+03   0.152335E+03   0.148000E+03
     1    92    77  -0.230952E+04  -0.416389E+03  -0.864726E+02  -0.930000E+02
     1    94    77  -0.230952E+04  -0.373339E+03  -0.962375E+02  -0.102000E+03
     1    94    73  -0.230952E+04  -0.440920E+03  -0.683554E+02  -0.740000E+02


 SOLVING FOR HEAD 
                                                   Max.-Head-Change                        Max.-Flux-Residual
  Residual-Control   Outer-Iter.   Inner-Iter.     Column Row Layer    Max.-Head-Change    Column Row Layer    Max.-Flux-Residual            L2-New               L2-Old           Solver-Max-Delh
          0                 1           3           197   82     1      -0.2057660954E+00     197   82    1      -0.4976978351E+03      0.6084302253E+04      0.3052957477E+02     -0.2057660954E+00
          0                 2           2           197   82     1       0.1776793503E-01     197   82    1       0.4976023674E+02      0.6083958038E+03      0.6084302253E+04      0.1776793503E-01

    ------------------------------------------------
       NWT REQUIRED            2 OUTER ITERATIONS 
       AND A TOTAL OF          5 INNER ITERATIONS.
    ------------------------------------------------

 NO OUTPUT CONTROL FOR STRESS PERIOD   91   TIME STEP    9

 WELLS WITH REDUCED PUMPING FOR STRESS PERIOD    91 TIME STEP     9
   LAY   ROW   COL         APPL.Q          ACT.Q        GW-HEAD       CELL-BOT
     1    77   213  -0.230952E+04  -0.689496E+03   0.152335E+03   0.148000E+03
     1    92    77  -0.230952E+04  -0.416492E+03  -0.864717E+02  -0.930000E+02
     1    94    77  -0.230952E+04  -0.372748E+03  -0.962425E+02  -0.102000E+03
     1    94    73  -0.230952E+04  -0.440420E+03  -0.683590E+02  -0.740000E+02


 SOLVING FOR HEAD 
                                                   Max.-Head-Change                        Max.-Flux-Residual
  Residual-Control   Outer-Iter.   Inner-Iter.     Column Row Layer    Max.-Head-Change    Column Row Layer    Max.-Flux-Residual            L2-New               L2-Old           Solver-Max-Delh
          0                 1           3           197   82     1      -0.2038444073E+00     197   82    1      -0.4930068428E+03      0.6064407058E+04      0.3041953984E+02     -0.2038444073E+00
          0                 2           2           197   82     1       0.1760201314E-01     197   82    1       0.4929128264E+02      0.6064202684E+03      0.6064407058E+04      0.1760201314E-01

    ------------------------------------------------
       NWT REQUIRED            2 OUTER ITERATIONS 
       AND A TOTAL OF          5 INNER ITERATIONS.
    ------------------------------------------------

 OUTPUT CONTROL FOR STRESS PERIOD   91   TIME STEP   10
    SAVE HEAD FOR ALL LAYERS

 WELLS WITH REDUCED PUMPING FOR STRESS PERIOD    91 TIME STEP    10
   LAY   ROW   COL         APPL.Q          ACT.Q        GW-HEAD       CELL-BOT
     1    77   213  -0.230952E+04  -0.689356E+03   0.152334E+03   0.148000E+03
     1    92    77  -0.230952E+04  -0.416593E+03  -0.864708E+02  -0.930000E+02
     1    94    77  -0.230952E+04  -0.372180E+03  -0.962474E+02  -0.102000E+03
     1    94    73  -0.230952E+04  -0.439943E+03  -0.683625E+02  -0.740000E+02


 HEAD WILL BE SAVED ON UNIT   51 AT END OF TIME STEP   10, STRESS PERIOD   91
1
  VOLUMETRIC BUDGET FOR ENTIRE MODEL AT END OF TIME STEP   10, STRESS PERIOD  91
  ------------------------------------------------------------------------------

     CUMULATIVE VOLUMES      L**3       RATES FOR THIS TIME STEP      L**3/T
     ------------------                 ------------------------

           IN:                                      IN:
           ---                                      ---
             STORAGE =   872464896.0000               STORAGE =      356730.1875
       CONSTANT HEAD =   141780720.0000         CONSTANT HEAD =       52185.5742
               WELLS =           0.0000                 WELLS =           0.0000
              DRAINS =           0.0000                DRAINS =           0.0000
                  ET =           0.0000                    ET =           0.0000
            RECHARGE =   479206528.0000              RECHARGE =      162759.9375

            TOTAL IN =  1493452160.0000              TOTAL IN =      571675.6875

          OUT:                                     OUT:
          ----                                     ----
             STORAGE =   241206416.0000               STORAGE =        7764.4346
       CONSTANT HEAD =           0.0000         CONSTANT HEAD =           0.0000
               WELLS =   849626560.0000                 WELLS =      479064.7188
              DRAINS =   284956736.0000                DRAINS =       58759.3516
                  ET =   115066040.0000                    ET =       24350.9258
            RECHARGE =      525047.1875              RECHARGE =           0.0000

           TOTAL OUT =  1491380864.0000             TOTAL OUT =      569939.4375

            IN - OUT =     2071296.0000              IN - OUT =        1736.2500

 PERCENT DISCREPANCY =           0.14     PERCENT DISCREPANCY =           0.30






         TIME SUMMARY AT END OF TIME STEP   10 IN STRESS PERIOD   91
                    SECONDS     MINUTES      HOURS       DAYS        YEARS
                    -----------------------------------------------------------
   TIME STEP LENGTH 2.62656E+05  4377.6      72.960      3.0400     8.32307E-03
 STRESS PERIOD TIME 2.62656E+06  43776.      729.60      30.400     8.32307E-02
         TOTAL TIME 2.39019E+08 3.98364E+06  66394.      2766.4      7.5740    
1
1
                            STRESS PERIOD NO.   92, LENGTH =   30.40000    
                            -----------------------------------------------

                              NUMBER OF TIME STEPS =    10

                               MULTIPLIER FOR DELT =     1.000

                            INITIAL TIME STEP SIZE =   3.040000    

 REUSING NON-PARAMETER WELLS FROM LAST STRESS PERIOD

    188 WELLS

 REUSING NON-PARAMETER DRAINS FROM LAST STRESS PERIOD

   1061 DRAINS

 REUSING SURF FROM LAST STRESS PERIOD

 REUSING EVTR FROM LAST STRESS PERIOD

 REUSING EXDP FROM LAST STRESS PERIOD



                           RECHARGE
 READING ON UNIT   19 WITH FORMAT: (510E15.6)          

 SOLVING FOR HEAD 
                                                   Max.-Head-Change                        Max.-Flux-Residual
  Residual-Control   Outer-Iter.   Inner-Iter.     Column Row Layer    Max.-Head-Change    Column Row Layer    Max.-Flux-Residual            L2-New               L2-Old           Solver-Max-Delh
          0                 1           3           263   79     1      -0.2584162604E+00     197   82    1      -0.5121608731E+03      0.7281533814E+04      0.3032077274E+02     -0.2584162604E+00
          0                 2           2           263   79     1       0.2221684741E-01     197   82    1       0.5120554822E+02      0.7284949503E+03      0.7281533814E+04      0.2221684741E-01

    ------------------------------------------------
       NWT REQUIRED            2 OUTER ITERATIONS 
       AND A TOTAL OF          5 INNER ITERATIONS.
    ------------------------------------------------

 NO OUTPUT CONTROL FOR STRESS PERIOD   92   TIME STEP    1

 WELLS WITH REDUCED PUMPING FOR STRESS PERIOD    92 TIME STEP     1
   LAY   ROW   COL         APPL.Q          ACT.Q        GW-HEAD       CELL-BOT
     1    77   213  -0.230952E+04  -0.686977E+03   0.152325E+03   0.148000E+03
     1    92    77  -0.230952E+04  -0.405616E+03  -0.865679E+02  -0.930000E+02
     1    94    77  -0.230952E+04  -0.370626E+03  -0.962608E+02  -0.102000E+03
     1    94    73  -0.230952E+04  -0.438296E+03  -0.683744E+02  -0.740000E+02


 SOLVING FOR HEAD 
                                                   Max.-Head-Change                        Max.-Flux-Residual
  Residual-Control   Outer-Iter.   Inner-Iter.     Column Row Layer    Max.-Head-Change    Column Row Layer    Max.-Flux-Residual            L2-New               L2-Old           Solver-Max-Delh
          0                 1           3           264   78     1      -0.2409459562E+00     197   82    1      -0.5077552912E+03      0.6826164812E+04      0.3642756654E+02     -0.2409459562E+00
          0                 2           2           264   78     1       0.2073934042E-01     197   82    1       0.5076512742E+02      0.6826614269E+03      0.6826164812E+04      0.2073934042E-01

    ------------------------------------------------
       NWT REQUIRED            2 OUTER ITERATIONS 
       AND A TOTAL OF          5 INNER ITERATIONS.
    ------------------------------------------------

 NO OUTPUT CONTROL FOR STRESS PERIOD   92   TIME STEP    2

 WELLS WITH REDUCED PUMPING FOR STRESS PERIOD    92 TIME STEP     2
   LAY   ROW   COL         APPL.Q          ACT.Q        GW-HEAD       CELL-BOT
     1    77   213  -0.230952E+04  -0.684772E+03   0.152317E+03   0.148000E+03
     1    92    77  -0.230952E+04  -0.399648E+03  -0.866211E+02  -0.930000E+02
     1    94    77  -0.230952E+04  -0.369136E+03  -0.962737E+02  -0.102000E+03
     1    94    73  -0.230952E+04  -0.436731E+03  -0.683857E+02  -0.740000E+02


 SOLVING FOR HEAD 
                                                   Max.-Head-Change                        Max.-Flux-Residual
  Residual-Control   Outer-Iter.   Inner-Iter.     Column Row Layer    Max.-Head-Change    Column Row Layer    Max.-Flux-Residual            L2-New               L2-Old           Solver-Max-Delh
          0                 1           3           265   78     1      -0.2347250795E+00     197   82    1      -0.5034405965E+03      0.6693242765E+04      0.3413338463E+02     -0.2347250795E+00
          0                 2           2           265   78     1       0.2020879416E-01     197   82    1       0.5033380269E+02      0.6693328798E+03      0.6693242765E+04      0.2020879416E-01

    ------------------------------------------------
       NWT REQUIRED            2 OUTER ITERATIONS 
       AND A TOTAL OF          5 INNER ITERATIONS.
    ------------------------------------------------

 NO OUTPUT CONTROL FOR STRESS PERIOD   92   TIME STEP    3

 WELLS WITH REDUCED PUMPING FOR STRESS PERIOD    92 TIME STEP     3
   LAY   ROW   COL         APPL.Q          ACT.Q        GW-HEAD       CELL-BOT
     1    77   213  -0.230952E+04  -0.682723E+03   0.152309E+03   0.148000E+03
     1    92    77  -0.230952E+04  -0.396318E+03  -0.866509E+02  -0.930000E+02
     1    94    77  -0.230952E+04  -0.367709E+03  -0.962860E+02  -0.102000E+03
     1    94    73  -0.230952E+04  -0.435241E+03  -0.683965E+02  -0.740000E+02


 SOLVING FOR HEAD 
                                                   Max.-Head-Change                        Max.-Flux-Residual
  Residual-Control   Outer-Iter.   Inner-Iter.     Column Row Layer    Max.-Head-Change    Column Row Layer    Max.-Flux-Residual            L2-New               L2-Old           Solver-Max-Delh
          0                 1           3           265   78     1      -0.2307950335E+00     197   82    1      -0.4992029898E+03      0.6631695374E+04      0.3346664402E+02     -0.2307950335E+00
          0                 2           2           265   78     1       0.1986497560E-01     197   82    1       0.4991018549E+02      0.6631433254E+03      0.6631695374E+04      0.1986497560E-01

    ------------------------------------------------
       NWT REQUIRED            2 OUTER ITERATIONS 
       AND A TOTAL OF          5 INNER ITERATIONS.
    ------------------------------------------------

 NO OUTPUT CONTROL FOR STRESS PERIOD   92   TIME STEP    4

 WELLS WITH REDUCED PUMPING FOR STRESS PERIOD    92 TIME STEP     4
   LAY   ROW   COL         APPL.Q          ACT.Q        GW-HEAD       CELL-BOT
     1    77   213  -0.230952E+04  -0.680815E+03   0.152302E+03   0.148000E+03
     1    92    77  -0.230952E+04  -0.394387E+03  -0.866682E+02  -0.930000E+02
     1    94    77  -0.230952E+04  -0.366341E+03  -0.962978E+02  -0.102000E+03
     1    94    73  -0.230952E+04  -0.433825E+03  -0.684068E+02  -0.740000E+02


 SOLVING FOR HEAD 
                                                   Max.-Head-Change                        Max.-Flux-Residual
  Residual-Control   Outer-Iter.   Inner-Iter.     Column Row Layer    Max.-Head-Change    Column Row Layer    Max.-Flux-Residual            L2-New               L2-Old           Solver-Max-Delh
          0                 1           3           265   78     1      -0.2258494145E+00     197   82    1      -0.4950388847E+03      0.6597941825E+04      0.3315740179E+02     -0.2258494145E+00
          0                 2           2           265   78     1       0.1944109100E-01     197   82    1       0.4949391589E+02      0.6597916270E+03      0.6597941825E+04      0.1944109100E-01

    ------------------------------------------------
       NWT REQUIRED            2 OUTER ITERATIONS 
       AND A TOTAL OF          5 INNER ITERATIONS.
    ------------------------------------------------

 NO OUTPUT CONTROL FOR STRESS PERIOD   92   TIME STEP    5

 WELLS WITH REDUCED PUMPING FOR STRESS PERIOD    92 TIME STEP     5
   LAY   ROW   COL         APPL.Q          ACT.Q        GW-HEAD       CELL-BOT
     1    77   213  -0.230952E+04  -0.679034E+03   0.152295E+03   0.148000E+03
     1    92    77  -0.230952E+04  -0.393203E+03  -0.866789E+02  -0.930000E+02
     1    94    77  -0.230952E+04  -0.365029E+03  -0.963092E+02  -0.102000E+03
     1    94    73  -0.230952E+04  -0.432476E+03  -0.684166E+02  -0.740000E+02


 SOLVING FOR HEAD 
                                                   Max.-Head-Change                        Max.-Flux-Residual
  Residual-Control   Outer-Iter.   Inner-Iter.     Column Row Layer    Max.-Head-Change    Column Row Layer    Max.-Flux-Residual            L2-New               L2-Old           Solver-Max-Delh
          0                 1           3           265   78     1      -0.2201853329E+00     197   82    1      -0.4909464267E+03      0.6577272132E+04      0.3298937627E+02     -0.2201853329E+00
          0                 2           2           265   78     1       0.1894786238E-01     197   82    1       0.4908480813E+02      0.6576984836E+03      0.6577272132E+04      0.1894786238E-01

    ------------------------------------------------
       NWT REQUIRED            2 OUTER ITERATIONS 
       AND A TOTAL OF          5 INNER ITERATIONS.
    ------------------------------------------------

 NO OUTPUT CONTROL FOR STRESS PERIOD   92   TIME STEP    6

 WELLS WITH REDUCED PUMPING FOR STRESS PERIOD    92 TIME STEP     6
   LAY   ROW   COL         APPL.Q          ACT.Q        GW-HEAD       CELL-BOT
     1    77   213  -0.230952E+04  -0.677368E+03   0.152289E+03   0.148000E+03
     1    92    77  -0.230952E+04  -0.392419E+03  -0.866859E+02  -0.930000E+02
     1    94    77  -0.230952E+04  -0.363772E+03  -0.963201E+02  -0.102000E+03
     1    94    73  -0.230952E+04  -0.431193E+03  -0.684260E+02  -0.740000E+02


 SOLVING FOR HEAD 
                                                   Max.-Head-Change                        Max.-Flux-Residual
  Residual-Control   Outer-Iter.   Inner-Iter.     Column Row Layer    Max.-Head-Change    Column Row Layer    Max.-Flux-Residual            L2-New               L2-Old           Solver-Max-Delh
          0                 1           3           265   78     1      -0.2140831045E+00     197   82    1      -0.4869241521E+03      0.6563437207E+04      0.3288471013E+02     -0.2140831045E+00
          0                 2           2           265   78     1       0.1842243797E-01     197   82    1       0.4868271582E+02      0.6562994866E+03      0.6563437207E+04      0.1842243797E-01

    ------------------------------------------------
       NWT REQUIRED            2 OUTER ITERATIONS 
       AND A TOTAL OF          5 INNER ITERATIONS.
    ------------------------------------------------

 NO OUTPUT CONTROL FOR STRESS PERIOD   92   TIME STEP    7

 WELLS WITH REDUCED PUMPING FOR STRESS PERIOD    92 TIME STEP     7
   LAY   ROW   COL         APPL.Q          ACT.Q        GW-HEAD       CELL-BOT
     1    77   213  -0.230952E+04  -0.675807E+03   0.152283E+03   0.148000E+03
     1    92    77  -0.230952E+04  -0.391852E+03  -0.866910E+02  -0.930000E+02
     1    94    77  -0.230952E+04  -0.362565E+03  -0.963306E+02  -0.102000E+03
     1    94    73  -0.230952E+04  -0.429970E+03  -0.684349E+02  -0.740000E+02


 SOLVING FOR HEAD 
                                                   Max.-Head-Change                        Max.-Flux-Residual
  Residual-Control   Outer-Iter.   Inner-Iter.     Column Row Layer    Max.-Head-Change    Column Row Layer    Max.-Flux-Residual            L2-New               L2-Old           Solver-Max-Delh
          0                 1           3           265   78     1      -0.2077541935E+00     197   82    1      -0.4829708683E+03      0.6553520133E+04      0.3281475420E+02     -0.2077541935E+00
          0                 2           2           265   78     1       0.1787837060E-01     197   82    1       0.4828751970E+02      0.6553935569E+03      0.6553520133E+04      0.1787837060E-01

    ------------------------------------------------
       NWT REQUIRED            2 OUTER ITERATIONS 
       AND A TOTAL OF          5 INNER ITERATIONS.
    ------------------------------------------------

 NO OUTPUT CONTROL FOR STRESS PERIOD   92   TIME STEP    8

 WELLS WITH REDUCED PUMPING FOR STRESS PERIOD    92 TIME STEP     8
   LAY   ROW   COL         APPL.Q          ACT.Q        GW-HEAD       CELL-BOT
     1    77   213  -0.230952E+04  -0.674339E+03   0.152278E+03   0.148000E+03
     1    92    77  -0.230952E+04  -0.391403E+03  -0.866951E+02  -0.930000E+02
     1    94    77  -0.230952E+04  -0.361408E+03  -0.963406E+02  -0.102000E+03
     1    94    73  -0.230952E+04  -0.428806E+03  -0.684434E+02  -0.740000E+02


 SOLVING FOR HEAD 
                                                   Max.-Head-Change                        Max.-Flux-Residual
  Residual-Control   Outer-Iter.   Inner-Iter.     Column Row Layer    Max.-Head-Change    Column Row Layer    Max.-Flux-Residual            L2-New               L2-Old           Solver-Max-Delh
          0                 1           3           265   78     1      -0.2013647372E+00     197   82    1      -0.4790853232E+03      0.6545898108E+04      0.3276945892E+02     -0.2013647372E+00
          0                 2           2           265   78     1       0.1732965401E-01     197   82    1       0.4789909463E+02      0.6545588398E+03      0.6545898108E+04      0.1732965401E-01

    ------------------------------------------------
       NWT REQUIRED            2 OUTER ITERATIONS 
       AND A TOTAL OF          5 INNER ITERATIONS.
    ------------------------------------------------

 NO OUTPUT CONTROL FOR STRESS PERIOD   92   TIME STEP    9

 WELLS WITH REDUCED PUMPING FOR STRESS PERIOD    92 TIME STEP     9
   LAY   ROW   COL         APPL.Q          ACT.Q        GW-HEAD       CELL-BOT
     1    77   213  -0.230952E+04  -0.672957E+03   0.152273E+03   0.148000E+03
     1    92    77  -0.230952E+04  -0.391019E+03  -0.866985E+02  -0.930000E+02
     1    94    77  -0.230952E+04  -0.360297E+03  -0.963503E+02  -0.102000E+03
     1    94    73  -0.230952E+04  -0.427697E+03  -0.684515E+02  -0.740000E+02


 SOLVING FOR HEAD 
                                                   Max.-Head-Change                        Max.-Flux-Residual
  Residual-Control   Outer-Iter.   Inner-Iter.     Column Row Layer    Max.-Head-Change    Column Row Layer    Max.-Flux-Residual            L2-New               L2-Old           Solver-Max-Delh
          0                 1           3           197   82     1      -0.1968136722E+00     197   82    1      -0.4752663024E+03      0.6539698842E+04      0.3272772162E+02     -0.1968136722E+00
          0                 2           2           197   82     1       0.1699483809E-01     197   82    1       0.4751731925E+02      0.6539396758E+03      0.6539698842E+04      0.1699483809E-01

    ------------------------------------------------
       NWT REQUIRED            2 OUTER ITERATIONS 
       AND A TOTAL OF          5 INNER ITERATIONS.
    ------------------------------------------------

 OUTPUT CONTROL FOR STRESS PERIOD   92   TIME STEP   10
    SAVE HEAD FOR ALL LAYERS

 WELLS WITH REDUCED PUMPING FOR STRESS PERIOD    92 TIME STEP    10
   LAY   ROW   COL         APPL.Q          ACT.Q        GW-HEAD       CELL-BOT
     1    77   213  -0.230952E+04  -0.671651E+03   0.152268E+03   0.148000E+03
     1    92    77  -0.230952E+04  -0.390672E+03  -0.867017E+02  -0.930000E+02
     1    94    77  -0.230952E+04  -0.359231E+03  -0.963596E+02  -0.102000E+03
     1    94    73  -0.230952E+04  -0.426640E+03  -0.684592E+02  -0.740000E+02


 HEAD WILL BE SAVED ON UNIT   51 AT END OF TIME STEP   10, STRESS PERIOD   92
1
  VOLUMETRIC BUDGET FOR ENTIRE MODEL AT END OF TIME STEP   10, STRESS PERIOD  92
  ------------------------------------------------------------------------------

     CUMULATIVE VOLUMES      L**3       RATES FOR THIS TIME STEP      L**3/T
     ------------------                 ------------------------

           IN:                                      IN:
           ---                                      ---
             STORAGE =   884990080.0000               STORAGE =      407590.0000
       CONSTANT HEAD =   143367120.0000         CONSTANT HEAD =       52186.6875
               WELLS =           0.0000                 WELLS =           0.0000
              DRAINS =           0.0000                DRAINS =           0.0000
                  ET =           0.0000                    ET =           0.0000
            RECHARGE =   482413888.0000              RECHARGE =      105507.3672

            TOTAL IN =  1510771072.0000              TOTAL IN =      565284.0625

          OUT:                                     OUT:
          ----                                     ----
             STORAGE =   241435008.0000               STORAGE =        4277.7407
       CONSTANT HEAD =           0.0000         CONSTANT HEAD =           0.0000
               WELLS =   864188672.0000                 WELLS =      478994.8438
              DRAINS =   286710880.0000                DRAINS =       56934.6328
                  ET =   115778976.0000                    ET =       23069.3047
            RECHARGE =      525047.1875              RECHARGE =           0.0000

           TOTAL OUT =  1508638592.0000             TOTAL OUT =      563276.5625

            IN - OUT =     2132480.0000              IN - OUT =        2007.5000

 PERCENT DISCREPANCY =           0.14     PERCENT DISCREPANCY =           0.36






         TIME SUMMARY AT END OF TIME STEP   10 IN STRESS PERIOD   92
                    SECONDS     MINUTES      HOURS       DAYS        YEARS
                    -----------------------------------------------------------
   TIME STEP LENGTH 2.62656E+05  4377.6      72.960      3.0400     8.32307E-03
 STRESS PERIOD TIME 2.62656E+06  43776.      729.60      30.400     8.32307E-02
         TOTAL TIME 2.41645E+08 4.02742E+06  67124.      2796.8      7.6573    
1
1
                            STRESS PERIOD NO.   93, LENGTH =   30.40000    
                            -----------------------------------------------

                              NUMBER OF TIME STEPS =    10

                               MULTIPLIER FOR DELT =     1.000

                            INITIAL TIME STEP SIZE =   3.040000    

 REUSING NON-PARAMETER WELLS FROM LAST STRESS PERIOD

    188 WELLS

 REUSING NON-PARAMETER DRAINS FROM LAST STRESS PERIOD

   1061 DRAINS

 REUSING SURF FROM LAST STRESS PERIOD

 REUSING EVTR FROM LAST STRESS PERIOD

 REUSING EXDP FROM LAST STRESS PERIOD



                           RECHARGE
 READING ON UNIT   19 WITH FORMAT: (510E15.6)          

 SOLVING FOR HEAD 
                                                   Max.-Head-Change                        Max.-Flux-Residual
  Residual-Control   Outer-Iter.   Inner-Iter.     Column Row Layer    Max.-Head-Change    Column Row Layer    Max.-Flux-Residual            L2-New               L2-Old           Solver-Max-Delh
          0                 1           3           197   82     1      -0.1946546177E+00     197   82    1      -0.4700331627E+03      0.6628523322E+04      0.3269676292E+02     -0.1946546177E+00
          0                 2           2           197   82     1       0.1680843150E-01     197   82    1       0.4699420253E+02      0.6628607701E+03      0.6628523322E+04      0.1680843150E-01

    ------------------------------------------------
       NWT REQUIRED            2 OUTER ITERATIONS 
       AND A TOTAL OF          5 INNER ITERATIONS.
    ------------------------------------------------

 NO OUTPUT CONTROL FOR STRESS PERIOD   93   TIME STEP    1

 WELLS WITH REDUCED PUMPING FOR STRESS PERIOD    93 TIME STEP     1
   LAY   ROW   COL         APPL.Q          ACT.Q        GW-HEAD       CELL-BOT
     1    77   213  -0.230952E+04  -0.670553E+03   0.152264E+03   0.148000E+03
     1    92    77  -0.230952E+04  -0.391030E+03  -0.866984E+02  -0.930000E+02
     1    94    77  -0.230952E+04  -0.358270E+03  -0.963680E+02  -0.102000E+03
     1    94    73  -0.230952E+04  -0.425706E+03  -0.684660E+02  -0.740000E+02


 SOLVING FOR HEAD 
                                                   Max.-Head-Change                        Max.-Flux-Residual
  Residual-Control   Outer-Iter.   Inner-Iter.     Column Row Layer    Max.-Head-Change    Column Row Layer    Max.-Flux-Residual            L2-New               L2-Old           Solver-Max-Delh
          0                 1           3           197   82     1      -0.1931391640E+00     197   82    1      -0.4663360703E+03      0.6555264565E+04      0.3314317376E+02     -0.1931391640E+00
          0                 2           2           197   82     1       0.1667758671E-01     197   82    1       0.4662461457E+02      0.6556273011E+03      0.6555264565E+04      0.1667758671E-01

    ------------------------------------------------
       NWT REQUIRED            2 OUTER ITERATIONS 
       AND A TOTAL OF          5 INNER ITERATIONS.
    ------------------------------------------------

 NO OUTPUT CONTROL FOR STRESS PERIOD   93   TIME STEP    2

 WELLS WITH REDUCED PUMPING FOR STRESS PERIOD    93 TIME STEP     2
   LAY   ROW   COL         APPL.Q          ACT.Q        GW-HEAD       CELL-BOT
     1    77   213  -0.230952E+04  -0.669508E+03   0.152260E+03   0.148000E+03
     1    92    77  -0.230952E+04  -0.391097E+03  -0.866978E+02  -0.930000E+02
     1    94    77  -0.230952E+04  -0.357347E+03  -0.963760E+02  -0.102000E+03
     1    94    73  -0.230952E+04  -0.424815E+03  -0.684726E+02  -0.740000E+02


 SOLVING FOR HEAD 
                                                   Max.-Head-Change                        Max.-Flux-Residual
  Residual-Control   Outer-Iter.   Inner-Iter.     Column Row Layer    Max.-Head-Change    Column Row Layer    Max.-Flux-Residual            L2-New               L2-Old           Solver-Max-Delh
          0                 1           3           197   82     1      -0.1916495689E+00     197   82    1      -0.4627014607E+03      0.6525498741E+04      0.3278123561E+02     -0.1916495689E+00
          0                 2           2           197   82     1       0.1654897418E-01     197   82    1       0.4626127195E+02      0.6525245524E+03      0.6525498741E+04      0.1654897418E-01

    ------------------------------------------------
       NWT REQUIRED            2 OUTER ITERATIONS 
       AND A TOTAL OF          5 INNER ITERATIONS.
    ------------------------------------------------

 NO OUTPUT CONTROL FOR STRESS PERIOD   93   TIME STEP    3

 WELLS WITH REDUCED PUMPING FOR STRESS PERIOD    93 TIME STEP     3
   LAY   ROW   COL         APPL.Q          ACT.Q        GW-HEAD       CELL-BOT
     1    77   213  -0.230952E+04  -0.668509E+03   0.152256E+03   0.148000E+03
     1    92    77  -0.230952E+04  -0.391009E+03  -0.866986E+02  -0.930000E+02
     1    94    77  -0.230952E+04  -0.356460E+03  -0.963838E+02  -0.102000E+03
     1    94    73  -0.230952E+04  -0.423965E+03  -0.684788E+02  -0.740000E+02


 SOLVING FOR HEAD 
                                                   Max.-Head-Change                        Max.-Flux-Residual
  Residual-Control   Outer-Iter.   Inner-Iter.     Column Row Layer    Max.-Head-Change    Column Row Layer    Max.-Flux-Residual            L2-New               L2-Old           Solver-Max-Delh
          0                 1           3           197   82     1      -0.1901854483E+00     197   82    1      -0.4591290360E+03      0.6506790135E+04      0.3262604506E+02     -0.1901854483E+00
          0                 2           2           197   82     1       0.1642256099E-01     197   82    1       0.4590414536E+02      0.6506514921E+03      0.6506790135E+04      0.1642256099E-01

    ------------------------------------------------
       NWT REQUIRED            2 OUTER ITERATIONS 
       AND A TOTAL OF          5 INNER ITERATIONS.
    ------------------------------------------------

 NO OUTPUT CONTROL FOR STRESS PERIOD   93   TIME STEP    4

 WELLS WITH REDUCED PUMPING FOR STRESS PERIOD    93 TIME STEP     4
   LAY   ROW   COL         APPL.Q          ACT.Q        GW-HEAD       CELL-BOT
     1    77   213  -0.230952E+04  -0.667553E+03   0.152252E+03   0.148000E+03
     1    92    77  -0.230952E+04  -0.390841E+03  -0.867001E+02  -0.930000E+02
     1    94    77  -0.230952E+04  -0.355607E+03  -0.963913E+02  -0.102000E+03
     1    94    73  -0.230952E+04  -0.423153E+03  -0.684848E+02  -0.740000E+02


 SOLVING FOR HEAD 
                                                   Max.-Head-Change                        Max.-Flux-Residual
  Residual-Control   Outer-Iter.   Inner-Iter.     Column Row Layer    Max.-Head-Change    Column Row Layer    Max.-Flux-Residual            L2-New               L2-Old           Solver-Max-Delh
          0                 1           3           197   82     1      -0.1887462735E+00     197   82    1      -0.4556175880E+03      0.6493212701E+04      0.3253236980E+02     -0.1887462735E+00
          0                 2           2           197   82     1       0.1629830151E-01     197   82    1       0.4555311403E+02      0.6492930015E+03      0.6493212701E+04      0.1629830151E-01

    ------------------------------------------------
       NWT REQUIRED            2 OUTER ITERATIONS 
       AND A TOTAL OF          5 INNER ITERATIONS.
    ------------------------------------------------

 NO OUTPUT CONTROL FOR STRESS PERIOD   93   TIME STEP    5

 WELLS WITH REDUCED PUMPING FOR STRESS PERIOD    93 TIME STEP     5
   LAY   ROW   COL         APPL.Q          ACT.Q        GW-HEAD       CELL-BOT
     1    77   213  -0.230952E+04  -0.666636E+03   0.152249E+03   0.148000E+03
     1    92    77  -0.230952E+04  -0.390632E+03  -0.867020E+02  -0.930000E+02
     1    94    77  -0.230952E+04  -0.354788E+03  -0.963984E+02  -0.102000E+03
     1    94    73  -0.230952E+04  -0.422378E+03  -0.684904E+02  -0.740000E+02


 SOLVING FOR HEAD 
                                                   Max.-Head-Change                        Max.-Flux-Residual
  Residual-Control   Outer-Iter.   Inner-Iter.     Column Row Layer    Max.-Head-Change    Column Row Layer    Max.-Flux-Residual            L2-New               L2-Old           Solver-Max-Delh
          0                 1           3           197   82     1      -0.1873316336E+00     197   82    1      -0.4521661295E+03      0.6482515489E+04      0.3246444185E+02     -0.1873316336E+00
          0                 2           2           197   82     1       0.1617616028E-01     197   82    1       0.4520807933E+02      0.6482228414E+03      0.6482515489E+04      0.1617616028E-01

    ------------------------------------------------
       NWT REQUIRED            2 OUTER ITERATIONS 
       AND A TOTAL OF          5 INNER ITERATIONS.
    ------------------------------------------------

 NO OUTPUT CONTROL FOR STRESS PERIOD   93   TIME STEP    6

 WELLS WITH REDUCED PUMPING FOR STRESS PERIOD    93 TIME STEP     6
   LAY   ROW   COL         APPL.Q          ACT.Q        GW-HEAD       CELL-BOT
     1    77   213  -0.230952E+04  -0.665754E+03   0.152245E+03   0.148000E+03
     1    92    77  -0.230952E+04  -0.390401E+03  -0.867041E+02  -0.930000E+02
     1    94    77  -0.230952E+04  -0.354000E+03  -0.964053E+02  -0.102000E+03
     1    94    73  -0.230952E+04  -0.421638E+03  -0.684959E+02  -0.740000E+02


 SOLVING FOR HEAD 
                                                   Max.-Head-Change                        Max.-Flux-Residual
  Residual-Control   Outer-Iter.   Inner-Iter.     Column Row Layer    Max.-Head-Change    Column Row Layer    Max.-Flux-Residual            L2-New               L2-Old           Solver-Max-Delh
          0                 1           3           197   82     1      -0.1859410323E+00     197   82    1      -0.4487734511E+03      0.6473619874E+04      0.3241352030E+02     -0.1859410323E+00
          0                 2           2           197   82     1       0.1605609444E-01     197   82    1       0.4486892036E+02      0.6474989407E+03      0.6473619874E+04      0.1605609444E-01

    ------------------------------------------------
       NWT REQUIRED            2 OUTER ITERATIONS 
       AND A TOTAL OF          5 INNER ITERATIONS.
    ------------------------------------------------

 NO OUTPUT CONTROL FOR STRESS PERIOD   93   TIME STEP    7

 WELLS WITH REDUCED PUMPING FOR STRESS PERIOD    93 TIME STEP     7
   LAY   ROW   COL         APPL.Q          ACT.Q        GW-HEAD       CELL-BOT
     1    77   213  -0.230952E+04  -0.664904E+03   0.152242E+03   0.148000E+03
     1    92    77  -0.230952E+04  -0.390162E+03  -0.867063E+02  -0.930000E+02
     1    94    77  -0.230952E+04  -0.353243E+03  -0.964120E+02  -0.102000E+03
     1    94    73  -0.230952E+04  -0.420930E+03  -0.685011E+02  -0.740000E+02


 SOLVING FOR HEAD 
                                                   Max.-Head-Change                        Max.-Flux-Residual
  Residual-Control   Outer-Iter.   Inner-Iter.     Column Row Layer    Max.-Head-Change    Column Row Layer    Max.-Flux-Residual            L2-New               L2-Old           Solver-Max-Delh
          0                 1           3           197   82     1      -0.1845740061E+00     197   82    1      -0.4454384189E+03      0.6465917543E+04      0.3237473075E+02     -0.1845740061E+00
          0                 2           2           197   82     1       0.1593806400E-01     197   82    1       0.4453552380E+02      0.6465634487E+03      0.6465917543E+04      0.1593806400E-01

    ------------------------------------------------
       NWT REQUIRED            2 OUTER ITERATIONS 
       AND A TOTAL OF          5 INNER ITERATIONS.
    ------------------------------------------------

 NO OUTPUT CONTROL FOR STRESS PERIOD   93   TIME STEP    8

 WELLS WITH REDUCED PUMPING FOR STRESS PERIOD    93 TIME STEP     8
   LAY   ROW   COL         APPL.Q          ACT.Q        GW-HEAD       CELL-BOT
     1    77   213  -0.230952E+04  -0.664083E+03   0.152239E+03   0.148000E+03
     1    92    77  -0.230952E+04  -0.389918E+03  -0.867085E+02  -0.930000E+02
     1    94    77  -0.230952E+04  -0.352514E+03  -0.964184E+02  -0.102000E+03
     1    94    73  -0.230952E+04  -0.420254E+03  -0.685060E+02  -0.740000E+02


 SOLVING FOR HEAD 
                                                   Max.-Head-Change                        Max.-Flux-Residual
  Residual-Control   Outer-Iter.   Inner-Iter.     Column Row Layer    Max.-Head-Change    Column Row Layer    Max.-Flux-Residual            L2-New               L2-Old           Solver-Max-Delh
          0                 1           3           197   82     1      -0.1832301453E+00     197   82    1      -0.4421600315E+03      0.6459098434E+04      0.3232795640E+02     -0.1832301453E+00
          0                 2           2           197   82     1       0.1582203358E-01     197   82    1       0.4420778954E+02      0.6458800543E+03      0.6459098434E+04      0.1582203358E-01

    ------------------------------------------------
       NWT REQUIRED            2 OUTER ITERATIONS 
       AND A TOTAL OF          5 INNER ITERATIONS.
    ------------------------------------------------

 NO OUTPUT CONTROL FOR STRESS PERIOD   93   TIME STEP    9

 WELLS WITH REDUCED PUMPING FOR STRESS PERIOD    93 TIME STEP     9
   LAY   ROW   COL         APPL.Q          ACT.Q        GW-HEAD       CELL-BOT
     1    77   213  -0.230952E+04  -0.663288E+03   0.152236E+03   0.148000E+03
     1    92    77  -0.230952E+04  -0.389675E+03  -0.867107E+02  -0.930000E+02
     1    94    77  -0.230952E+04  -0.351813E+03  -0.964245E+02  -0.102000E+03
     1    94    73  -0.230952E+04  -0.419608E+03  -0.685108E+02  -0.740000E+02


 SOLVING FOR HEAD 
                                                   Max.-Head-Change                        Max.-Flux-Residual
  Residual-Control   Outer-Iter.   Inner-Iter.     Column Row Layer    Max.-Head-Change    Column Row Layer    Max.-Flux-Residual            L2-New               L2-Old           Solver-Max-Delh
          0                 1           3           197   82     1      -0.1819089820E+00     197   82    1      -0.4389371421E+03      0.6452926834E+04      0.3229378612E+02     -0.1819089820E+00
          0                 2           2           197   82     1       0.1570796278E-01     197   82    1       0.4388560298E+02      0.6452630040E+03      0.6452926834E+04      0.1570796278E-01

    ------------------------------------------------
       NWT REQUIRED            2 OUTER ITERATIONS 
       AND A TOTAL OF          5 INNER ITERATIONS.
    ------------------------------------------------

 OUTPUT CONTROL FOR STRESS PERIOD   93   TIME STEP   10
    SAVE HEAD FOR ALL LAYERS

 WELLS WITH REDUCED PUMPING FOR STRESS PERIOD    93 TIME STEP    10
   LAY   ROW   COL         APPL.Q          ACT.Q        GW-HEAD       CELL-BOT
     1    77   213  -0.230952E+04  -0.662517E+03   0.152233E+03   0.148000E+03
     1    92    77  -0.230952E+04  -0.389433E+03  -0.867128E+02  -0.930000E+02
     1    94    77  -0.230952E+04  -0.351138E+03  -0.964305E+02  -0.102000E+03
     1    94    73  -0.230952E+04  -0.418990E+03  -0.685153E+02  -0.740000E+02


 HEAD WILL BE SAVED ON UNIT   51 AT END OF TIME STEP   10, STRESS PERIOD   93
1
  VOLUMETRIC BUDGET FOR ENTIRE MODEL AT END OF TIME STEP   10, STRESS PERIOD  93
  ------------------------------------------------------------------------------

     CUMULATIVE VOLUMES      L**3       RATES FOR THIS TIME STEP      L**3/T
     ------------------                 ------------------------

           IN:                                      IN:
           ---                                      ---
             STORAGE =   897119872.0000               STORAGE =      396746.7188
       CONSTANT HEAD =   144953664.0000         CONSTANT HEAD =       52187.7578
               WELLS =           0.0000                 WELLS =           0.0000
              DRAINS =           0.0000                DRAINS =           0.0000
                  ET =           0.0000                    ET =           0.0000
            RECHARGE =   486025408.0000              RECHARGE =      118795.0859

            TOTAL IN =  1528098944.0000              TOTAL IN =      567729.5625

          OUT:                                     OUT:
          ----                                     ----
             STORAGE =   241739584.0000               STORAGE =        8482.4531
       CONSTANT HEAD =           0.0000         CONSTANT HEAD =           0.0000
               WELLS =   878749632.0000                 WELLS =      478968.7188
              DRAINS =   288420800.0000                DRAINS =       55733.7109
                  ET =   116472280.0000                    ET =       22612.3789
            RECHARGE =      525047.1875              RECHARGE =           0.0000

           TOTAL OUT =  1525907456.0000             TOTAL OUT =      565797.2500

            IN - OUT =     2191488.0000              IN - OUT =        1932.3125

 PERCENT DISCREPANCY =           0.14     PERCENT DISCREPANCY =           0.34






         TIME SUMMARY AT END OF TIME STEP   10 IN STRESS PERIOD   93
                    SECONDS     MINUTES      HOURS       DAYS        YEARS
                    -----------------------------------------------------------
   TIME STEP LENGTH 2.62656E+05  4377.6      72.960      3.0400     8.32307E-03
 STRESS PERIOD TIME 2.62656E+06  43776.      729.60      30.400     8.32307E-02
         TOTAL TIME 2.44272E+08 4.07120E+06  67853.      2827.2      7.7405    
1
1
                            STRESS PERIOD NO.   94, LENGTH =   30.40000    
                            -----------------------------------------------

                              NUMBER OF TIME STEPS =    10

                               MULTIPLIER FOR DELT =     1.000

                            INITIAL TIME STEP SIZE =   3.040000    

 REUSING NON-PARAMETER WELLS FROM LAST STRESS PERIOD

    188 WELLS

 REUSING NON-PARAMETER DRAINS FROM LAST STRESS PERIOD

   1061 DRAINS

 REUSING SURF FROM LAST STRESS PERIOD

 REUSING EVTR FROM LAST STRESS PERIOD

 REUSING EXDP FROM LAST STRESS PERIOD



                           RECHARGE
 READING ON UNIT   19 WITH FORMAT: (510E15.6)          

 SOLVING FOR HEAD 
                                                   Max.-Head-Change                        Max.-Flux-Residual
  Residual-Control   Outer-Iter.   Inner-Iter.     Column Row Layer    Max.-Head-Change    Column Row Layer    Max.-Flux-Residual            L2-New               L2-Old           Solver-Max-Delh
          0                 1           3           461  449     1      -0.3700326928E+00     464  446    1      -0.1089770650E+04      0.9163978276E+04      0.3226293276E+02     -0.3700326928E+00
          0                 2           2            51   87     1      -0.6566945979E-01     462  450    1       0.1111367035E+03      0.9118887290E+03      0.9163978276E+04     -0.6566945979E-01

    ------------------------------------------------
       NWT REQUIRED            2 OUTER ITERATIONS 
       AND A TOTAL OF          5 INNER ITERATIONS.
    ------------------------------------------------

 NO OUTPUT CONTROL FOR STRESS PERIOD   94   TIME STEP    1

 WELLS WITH REDUCED PUMPING FOR STRESS PERIOD    94 TIME STEP     1
   LAY   ROW   COL         APPL.Q          ACT.Q        GW-HEAD       CELL-BOT
     1    77   213  -0.230952E+04  -0.663796E+03   0.152238E+03   0.148000E+03
     1    92    77  -0.230952E+04  -0.399279E+03  -0.866244E+02  -0.930000E+02
     1    94    77  -0.230952E+04  -0.351397E+03  -0.964282E+02  -0.102000E+03
     1    94    73  -0.230952E+04  -0.419475E+03  -0.685118E+02  -0.740000E+02


 SOLVING FOR HEAD 
                                                   Max.-Head-Change                        Max.-Flux-Residual
  Residual-Control   Outer-Iter.   Inner-Iter.     Column Row Layer    Max.-Head-Change    Column Row Layer    Max.-Flux-Residual            L2-New               L2-Old           Solver-Max-Delh
          0                 1           3           461  449     1      -0.2969995166E+00     461  449    1      -0.8875495808E+03      0.7742629508E+04      0.4557257006E+02     -0.2969995166E+00
          0                 2           2           194   79     1      -0.9800090079E-01     461  449    1       0.8773304222E+02      0.7750550289E+03      0.7742629508E+04     -0.9800090079E-01

    ------------------------------------------------
       NWT REQUIRED            2 OUTER ITERATIONS 
       AND A TOTAL OF          5 INNER ITERATIONS.
    ------------------------------------------------

 NO OUTPUT CONTROL FOR STRESS PERIOD   94   TIME STEP    2

 WELLS WITH REDUCED PUMPING FOR STRESS PERIOD    94 TIME STEP     2
   LAY   ROW   COL         APPL.Q          ACT.Q        GW-HEAD       CELL-BOT
     1    77   213  -0.230952E+04  -0.664935E+03   0.152242E+03   0.148000E+03
     1    92    77  -0.230952E+04  -0.404638E+03  -0.865766E+02  -0.930000E+02
     1    94    77  -0.230952E+04  -0.351643E+03  -0.964260E+02  -0.102000E+03
     1    94    73  -0.230952E+04  -0.419934E+03  -0.685084E+02  -0.740000E+02


 SOLVING FOR HEAD 
                                                   Max.-Head-Change                        Max.-Flux-Residual
  Residual-Control   Outer-Iter.   Inner-Iter.     Column Row Layer    Max.-Head-Change    Column Row Layer    Max.-Flux-Residual            L2-New               L2-Old           Solver-Max-Delh
          0                 1           3           461  449     1      -0.2448732993E+00     461  449    1      -0.7120767296E+03      0.7262183140E+04      0.3874370790E+02     -0.2448732993E+00
          0                 2           2           461  449     1       0.2106755693E-01     461  449    1       0.7060181881E+02      0.7257124151E+03      0.7262183140E+04      0.2106755693E-01

    ------------------------------------------------
       NWT REQUIRED            2 OUTER ITERATIONS 
       AND A TOTAL OF          5 INNER ITERATIONS.
    ------------------------------------------------

 NO OUTPUT CONTROL FOR STRESS PERIOD   94   TIME STEP    3

 WELLS WITH REDUCED PUMPING FOR STRESS PERIOD    94 TIME STEP     3
   LAY   ROW   COL         APPL.Q          ACT.Q        GW-HEAD       CELL-BOT
     1    77   213  -0.230952E+04  -0.665946E+03   0.152246E+03   0.148000E+03
     1    92    77  -0.230952E+04  -0.407573E+03  -0.865505E+02  -0.930000E+02
     1    94    77  -0.230952E+04  -0.351876E+03  -0.964240E+02  -0.102000E+03
     1    94    73  -0.230952E+04  -0.420368E+03  -0.685052E+02  -0.740000E+02


 SOLVING FOR HEAD 
                                                   Max.-Head-Change                        Max.-Flux-Residual
  Residual-Control   Outer-Iter.   Inner-Iter.     Column Row Layer    Max.-Head-Change    Column Row Layer    Max.-Flux-Residual            L2-New               L2-Old           Solver-Max-Delh
          0                 1           3           461  449     1      -0.2097450301E+00     461  449    1      -0.5870883080E+03      0.7010599042E+04      0.3628182482E+02     -0.2097450301E+00
          0                 2           2           461  449     1       0.1806584643E-01     461  449    1       0.5835794068E+02      0.7007896941E+03      0.7010599042E+04      0.1806584643E-01

    ------------------------------------------------
       NWT REQUIRED            2 OUTER ITERATIONS 
       AND A TOTAL OF          5 INNER ITERATIONS.
    ------------------------------------------------

 NO OUTPUT CONTROL FOR STRESS PERIOD   94   TIME STEP    4

 WELLS WITH REDUCED PUMPING FOR STRESS PERIOD    94 TIME STEP     4
   LAY   ROW   COL         APPL.Q          ACT.Q        GW-HEAD       CELL-BOT
     1    77   213  -0.230952E+04  -0.666842E+03   0.152250E+03   0.148000E+03
     1    92    77  -0.230952E+04  -0.409209E+03  -0.865360E+02  -0.930000E+02
     1    94    77  -0.230952E+04  -0.352096E+03  -0.964220E+02  -0.102000E+03
     1    94    73  -0.230952E+04  -0.420777E+03  -0.685022E+02  -0.740000E+02


 SOLVING FOR HEAD 
                                                   Max.-Head-Change                        Max.-Flux-Residual
  Residual-Control   Outer-Iter.   Inner-Iter.     Column Row Layer    Max.-Head-Change    Column Row Layer    Max.-Flux-Residual            L2-New               L2-Old           Solver-Max-Delh
          0                 1           3           461  449     1      -0.1856082237E+00     461  449    1      -0.5029125251E+03      0.6856410559E+04      0.3503750181E+02     -0.1856082237E+00
          0                 2           2           461  449     1       0.1599877856E-01     461  449    1       0.5007787657E+02      0.6854729678E+03      0.6856410559E+04      0.1599877856E-01

    ------------------------------------------------
       NWT REQUIRED            2 OUTER ITERATIONS 
       AND A TOTAL OF          5 INNER ITERATIONS.
    ------------------------------------------------

 NO OUTPUT CONTROL FOR STRESS PERIOD   94   TIME STEP    5

 WELLS WITH REDUCED PUMPING FOR STRESS PERIOD    94 TIME STEP     5
   LAY   ROW   COL         APPL.Q          ACT.Q        GW-HEAD       CELL-BOT
     1    77   213  -0.230952E+04  -0.667633E+03   0.152253E+03   0.148000E+03
     1    92    77  -0.230952E+04  -0.410149E+03  -0.865277E+02  -0.930000E+02
     1    94    77  -0.230952E+04  -0.352305E+03  -0.964202E+02  -0.102000E+03
     1    94    73  -0.230952E+04  -0.421163E+03  -0.684994E+02  -0.740000E+02


 SOLVING FOR HEAD 
                                                   Max.-Head-Change                        Max.-Flux-Residual
  Residual-Control   Outer-Iter.   Inner-Iter.     Column Row Layer    Max.-Head-Change    Column Row Layer    Max.-Flux-Residual            L2-New               L2-Old           Solver-Max-Delh
          0                 1           3           461  449     1      -0.1683554181E+00     461  449    1      -0.4450810546E+03      0.6751990877E+04      0.3427242425E+02     -0.1683554181E+00
          0                 2           2           461  449     1       0.1451869724E-01     461  449    1       0.4437011969E+02      0.6750831304E+03      0.6751990877E+04      0.1451869724E-01

    ------------------------------------------------
       NWT REQUIRED            2 OUTER ITERATIONS 
       AND A TOTAL OF          5 INNER ITERATIONS.
    ------------------------------------------------

 NO OUTPUT CONTROL FOR STRESS PERIOD   94   TIME STEP    6

 WELLS WITH REDUCED PUMPING FOR STRESS PERIOD    94 TIME STEP     6
   LAY   ROW   COL         APPL.Q          ACT.Q        GW-HEAD       CELL-BOT
     1    77   213  -0.230952E+04  -0.668329E+03   0.152255E+03   0.148000E+03
     1    92    77  -0.230952E+04  -0.410718E+03  -0.865226E+02  -0.930000E+02
     1    94    77  -0.230952E+04  -0.352502E+03  -0.964185E+02  -0.102000E+03
     1    94    73  -0.230952E+04  -0.421528E+03  -0.684967E+02  -0.740000E+02


 SOLVING FOR HEAD 
                                                   Max.-Head-Change                        Max.-Flux-Residual
  Residual-Control   Outer-Iter.   Inner-Iter.     Column Row Layer    Max.-Head-Change    Column Row Layer    Max.-Flux-Residual            L2-New               L2-Old           Solver-Max-Delh
          0                 1           3           197   82     1      -0.1638212071E+00     461  449    1      -0.4037410829E+03      0.6675915244E+04      0.3375331757E+02     -0.1638212071E+00
          0                 2           2           197   82     1       0.1414629993E-01     461  449    1       0.4027966167E+02      0.6675032080E+03      0.6675915244E+04      0.1414629993E-01

    ------------------------------------------------
       NWT REQUIRED            2 OUTER ITERATIONS 
       AND A TOTAL OF          5 INNER ITERATIONS.
    ------------------------------------------------

 NO OUTPUT CONTROL FOR STRESS PERIOD   94   TIME STEP    7

 WELLS WITH REDUCED PUMPING FOR STRESS PERIOD    94 TIME STEP     7
   LAY   ROW   COL         APPL.Q          ACT.Q        GW-HEAD       CELL-BOT
     1    77   213  -0.230952E+04  -0.668939E+03   0.152258E+03   0.148000E+03
     1    92    77  -0.230952E+04  -0.411087E+03  -0.865194E+02  -0.930000E+02
     1    94    77  -0.230952E+04  -0.352689E+03  -0.964168E+02  -0.102000E+03
     1    94    73  -0.230952E+04  -0.421872E+03  -0.684942E+02  -0.740000E+02


 SOLVING FOR HEAD 
                                                   Max.-Head-Change                        Max.-Flux-Residual
  Residual-Control   Outer-Iter.   Inner-Iter.     Column Row Layer    Max.-Head-Change    Column Row Layer    Max.-Flux-Residual            L2-New               L2-Old           Solver-Max-Delh
          0                 1           3           197   82     1      -0.1626249823E+00     197   82    1      -0.3924169818E+03      0.6617255466E+04      0.3337451930E+02     -0.1626249823E+00
          0                 2           2           203   77     1      -0.3190444611E-01     197   82    1       0.3923526143E+02      0.6619071153E+03      0.6617255466E+04     -0.3190444611E-01

    ------------------------------------------------
       NWT REQUIRED            2 OUTER ITERATIONS 
       AND A TOTAL OF          5 INNER ITERATIONS.
    ------------------------------------------------

 NO OUTPUT CONTROL FOR STRESS PERIOD   94   TIME STEP    8

 WELLS WITH REDUCED PUMPING FOR STRESS PERIOD    94 TIME STEP     8
   LAY   ROW   COL         APPL.Q          ACT.Q        GW-HEAD       CELL-BOT
     1    77   213  -0.230952E+04  -0.669471E+03   0.152260E+03   0.148000E+03
     1    92    77  -0.230952E+04  -0.411348E+03  -0.865171E+02  -0.930000E+02
     1    94    77  -0.230952E+04  -0.352866E+03  -0.964153E+02  -0.102000E+03
     1    94    73  -0.230952E+04  -0.422196E+03  -0.684918E+02  -0.740000E+02


 SOLVING FOR HEAD 
                                                   Max.-Head-Change                        Max.-Flux-Residual
  Residual-Control   Outer-Iter.   Inner-Iter.     Column Row Layer    Max.-Head-Change    Column Row Layer    Max.-Flux-Residual            L2-New               L2-Old           Solver-Max-Delh
          0                 1           3           197   82     1      -0.1614490755E+00     197   82    1      -0.3895487017E+03      0.6569943621E+04      0.3309482861E+02     -0.1614490755E+00
          0                 2           2           204   74     1      -0.2220010849E-01     197   82    1       0.3894851294E+02      0.6570544947E+03      0.6569943621E+04     -0.2220010849E-01

    ------------------------------------------------
       NWT REQUIRED            2 OUTER ITERATIONS 
       AND A TOTAL OF          5 INNER ITERATIONS.
    ------------------------------------------------

 NO OUTPUT CONTROL FOR STRESS PERIOD   94   TIME STEP    9

 WELLS WITH REDUCED PUMPING FOR STRESS PERIOD    94 TIME STEP     9
   LAY   ROW   COL         APPL.Q          ACT.Q        GW-HEAD       CELL-BOT
     1    77   213  -0.230952E+04  -0.669932E+03   0.152261E+03   0.148000E+03
     1    92    77  -0.230952E+04  -0.411550E+03  -0.865153E+02  -0.930000E+02
     1    94    77  -0.230952E+04  -0.353032E+03  -0.964138E+02  -0.102000E+03
     1    94    73  -0.230952E+04  -0.422501E+03  -0.684895E+02  -0.740000E+02


 SOLVING FOR HEAD 
                                                   Max.-Head-Change                        Max.-Flux-Residual
  Residual-Control   Outer-Iter.   Inner-Iter.     Column Row Layer    Max.-Head-Change    Column Row Layer    Max.-Flux-Residual            L2-New               L2-Old           Solver-Max-Delh
          0                 1           3           197   82     1      -0.1602930609E+00     197   82    1      -0.3867292426E+03      0.6530409428E+04      0.3285226876E+02     -0.1602930609E+00
          0                 2           2           197   82     1       0.1384166545E-01     197   82    1       0.3866664509E+02      0.6529851100E+03      0.6530409428E+04      0.1384166545E-01

    ------------------------------------------------
       NWT REQUIRED            2 OUTER ITERATIONS 
       AND A TOTAL OF          5 INNER ITERATIONS.
    ------------------------------------------------

 OUTPUT CONTROL FOR STRESS PERIOD   94   TIME STEP   10
    SAVE HEAD FOR ALL LAYERS

 WELLS WITH REDUCED PUMPING FOR STRESS PERIOD    94 TIME STEP    10
   LAY   ROW   COL         APPL.Q          ACT.Q        GW-HEAD       CELL-BOT
     1    77   213  -0.230952E+04  -0.670330E+03   0.152263E+03   0.148000E+03
     1    92    77  -0.230952E+04  -0.411720E+03  -0.865138E+02  -0.930000E+02
     1    94    77  -0.230952E+04  -0.353189E+03  -0.964124E+02  -0.102000E+03
     1    94    73  -0.230952E+04  -0.422789E+03  -0.684874E+02  -0.740000E+02


 HEAD WILL BE SAVED ON UNIT   51 AT END OF TIME STEP   10, STRESS PERIOD   94
1
  VOLUMETRIC BUDGET FOR ENTIRE MODEL AT END OF TIME STEP   10, STRESS PERIOD  94
  ------------------------------------------------------------------------------

     CUMULATIVE VOLUMES      L**3       RATES FOR THIS TIME STEP      L**3/T
     ------------------                 ------------------------

           IN:                                      IN:
           ---                                      ---
             STORAGE =   908617344.0000               STORAGE =      377066.7188
       CONSTANT HEAD =   146540224.0000         CONSTANT HEAD =       52188.7812
               WELLS =           0.0000                 WELLS =           0.0000
              DRAINS =           0.0000                DRAINS =           0.0000
                  ET =           0.0000                    ET =           0.0000
            RECHARGE =   490207168.0000              RECHARGE =      137560.4688

            TOTAL IN =  1545364736.0000              TOTAL IN =      566816.0000

          OUT:                                     OUT:
          ----                                     ----
             STORAGE =   242003248.0000               STORAGE =        7593.1602
       CONSTANT HEAD =           0.0000         CONSTANT HEAD =           0.0000
               WELLS =   893311168.0000                 WELLS =      479004.6875
              DRAINS =   290114784.0000                DRAINS =       55676.5039
                  ET =   117163144.0000                    ET =       22703.4609
            RECHARGE =      525047.1875              RECHARGE =           0.0000

           TOTAL OUT =  1543117440.0000             TOTAL OUT =      564977.8125

            IN - OUT =     2247296.0000              IN - OUT =        1838.1875

 PERCENT DISCREPANCY =           0.15     PERCENT DISCREPANCY =           0.32






         TIME SUMMARY AT END OF TIME STEP   10 IN STRESS PERIOD   94
                    SECONDS     MINUTES      HOURS       DAYS        YEARS
                    -----------------------------------------------------------
   TIME STEP LENGTH 2.62656E+05  4377.6      72.960      3.0400     8.32307E-03
 STRESS PERIOD TIME 2.62656E+06  43776.      729.60      30.400     8.32307E-02
         TOTAL TIME 2.46898E+08 4.11497E+06  68583.      2857.6      7.8237    
1
1
                            STRESS PERIOD NO.   95, LENGTH =   30.40000    
                            -----------------------------------------------

                              NUMBER OF TIME STEPS =    10

                               MULTIPLIER FOR DELT =     1.000

                            INITIAL TIME STEP SIZE =   3.040000    

 REUSING NON-PARAMETER WELLS FROM LAST STRESS PERIOD

    188 WELLS

 REUSING NON-PARAMETER DRAINS FROM LAST STRESS PERIOD

   1061 DRAINS

 REUSING SURF FROM LAST STRESS PERIOD

 REUSING EVTR FROM LAST STRESS PERIOD

 REUSING EXDP FROM LAST STRESS PERIOD



                           RECHARGE
 READING ON UNIT   19 WITH FORMAT: (510E15.6)          

 SOLVING FOR HEAD 
                                                   Max.-Head-Change                        Max.-Flux-Residual
  Residual-Control   Outer-Iter.   Inner-Iter.     Column Row Layer    Max.-Head-Change    Column Row Layer    Max.-Flux-Residual            L2-New               L2-Old           Solver-Max-Delh
          0                 1           3           197   82     1      -0.1589592333E+00     197   82    1      -0.3834902758E+03      0.6143803599E+04      0.3264885255E+02     -0.1589592333E+00
          0                 2           2           197   82     1       0.1372649922E-01     197   82    1       0.3834284542E+02      0.6142693391E+03      0.6143803599E+04      0.1372649922E-01

    ------------------------------------------------
       NWT REQUIRED            2 OUTER ITERATIONS 
       AND A TOTAL OF          5 INNER ITERATIONS.
    ------------------------------------------------

 NO OUTPUT CONTROL FOR STRESS PERIOD   95   TIME STEP    1

 WELLS WITH REDUCED PUMPING FOR STRESS PERIOD    95 TIME STEP     1
   LAY   ROW   COL         APPL.Q          ACT.Q        GW-HEAD       CELL-BOT
     1    77   213  -0.230952E+04  -0.670713E+03   0.152264E+03   0.148000E+03
     1    92    77  -0.230952E+04  -0.412088E+03  -0.865105E+02  -0.930000E+02
     1    94    77  -0.230952E+04  -0.353357E+03  -0.964110E+02  -0.102000E+03
     1    94    73  -0.230952E+04  -0.423083E+03  -0.684853E+02  -0.740000E+02


 SOLVING FOR HEAD 
                                                   Max.-Head-Change                        Max.-Flux-Residual
  Residual-Control   Outer-Iter.   Inner-Iter.     Column Row Layer    Max.-Head-Change    Column Row Layer    Max.-Flux-Residual            L2-New               L2-Old           Solver-Max-Delh
          0                 1           3           197   82     1      -0.1578382560E+00     197   82    1      -0.3807597882E+03      0.6070181992E+04      0.3071264539E+02     -0.1578382560E+00
          0                 2           2           197   82     1       0.1362970983E-01     197   82    1       0.3806987320E+02      0.6069727910E+03      0.6070181992E+04      0.1362970983E-01

    ------------------------------------------------
       NWT REQUIRED            2 OUTER ITERATIONS 
       AND A TOTAL OF          5 INNER ITERATIONS.
    ------------------------------------------------

 NO OUTPUT CONTROL FOR STRESS PERIOD   95   TIME STEP    2

 WELLS WITH REDUCED PUMPING FOR STRESS PERIOD    95 TIME STEP     2
   LAY   ROW   COL         APPL.Q          ACT.Q        GW-HEAD       CELL-BOT
     1    77   213  -0.230952E+04  -0.671040E+03   0.152265E+03   0.148000E+03
     1    92    77  -0.230952E+04  -0.412346E+03  -0.865082E+02  -0.930000E+02
     1    94    77  -0.230952E+04  -0.353515E+03  -0.964096E+02  -0.102000E+03
     1    94    73  -0.230952E+04  -0.423359E+03  -0.684832E+02  -0.740000E+02


 SOLVING FOR HEAD 
                                                   Max.-Head-Change                        Max.-Flux-Residual
  Residual-Control   Outer-Iter.   Inner-Iter.     Column Row Layer    Max.-Head-Change    Column Row Layer    Max.-Flux-Residual            L2-New               L2-Old           Solver-Max-Delh
          0                 1           3           197   82     1      -0.1567351310E+00     197   82    1      -0.3780720509E+03      0.6043439594E+04      0.3034830688E+02     -0.1567351310E+00
          0                 2           2           197   82     1       0.1353446168E-01     197   82    1       0.3780117415E+02      0.6043091142E+03      0.6043439594E+04      0.1353446168E-01

    ------------------------------------------------
       NWT REQUIRED            2 OUTER ITERATIONS 
       AND A TOTAL OF          5 INNER ITERATIONS.
    ------------------------------------------------

 NO OUTPUT CONTROL FOR STRESS PERIOD   95   TIME STEP    3

 WELLS WITH REDUCED PUMPING FOR STRESS PERIOD    95 TIME STEP     3
   LAY   ROW   COL         APPL.Q          ACT.Q        GW-HEAD       CELL-BOT
     1    77   213  -0.230952E+04  -0.671317E+03   0.152266E+03   0.148000E+03
     1    92    77  -0.230952E+04  -0.412545E+03  -0.865065E+02  -0.930000E+02
     1    94    77  -0.230952E+04  -0.353664E+03  -0.964083E+02  -0.102000E+03
     1    94    73  -0.230952E+04  -0.423620E+03  -0.684813E+02  -0.740000E+02


 SOLVING FOR HEAD 
                                                   Max.-Head-Change                        Max.-Flux-Residual
  Residual-Control   Outer-Iter.   Inner-Iter.     Column Row Layer    Max.-Head-Change    Column Row Layer    Max.-Flux-Residual            L2-New               L2-Old           Solver-Max-Delh
          0                 1           3           197   82     1      -0.1556497544E+00     197   82    1      -0.3754271320E+03      0.6025908170E+04      0.3021520039E+02     -0.1556497544E+00
          0                 2           2           197   82     1       0.1344074583E-01     197   82    1       0.3753675523E+02      0.6025596631E+03      0.6025908170E+04      0.1344074583E-01

    ------------------------------------------------
       NWT REQUIRED            2 OUTER ITERATIONS 
       AND A TOTAL OF          5 INNER ITERATIONS.
    ------------------------------------------------

 NO OUTPUT CONTROL FOR STRESS PERIOD   95   TIME STEP    4

 WELLS WITH REDUCED PUMPING FOR STRESS PERIOD    95 TIME STEP     4
   LAY   ROW   COL         APPL.Q          ACT.Q        GW-HEAD       CELL-BOT
     1    77   213  -0.230952E+04  -0.671547E+03   0.152267E+03   0.148000E+03
     1    92    77  -0.230952E+04  -0.412710E+03  -0.865050E+02  -0.930000E+02
     1    94    77  -0.230952E+04  -0.353804E+03  -0.964071E+02  -0.102000E+03
     1    94    73  -0.230952E+04  -0.423865E+03  -0.684795E+02  -0.740000E+02


 SOLVING FOR HEAD 
                                                   Max.-Head-Change                        Max.-Flux-Residual
  Residual-Control   Outer-Iter.   Inner-Iter.     Column Row Layer    Max.-Head-Change    Column Row Layer    Max.-Flux-Residual            L2-New               L2-Old           Solver-Max-Delh
          0                 1           3           197   82     1      -0.1545819022E+00     197   82    1      -0.3728247302E+03      0.6011905554E+04      0.3012775415E+02     -0.1545819022E+00
          0                 2           2           197   82     1       0.1334854298E-01     197   82    1       0.3727658649E+02      0.6011610630E+03      0.6011905554E+04      0.1334854298E-01

    ------------------------------------------------
       NWT REQUIRED            2 OUTER ITERATIONS 
       AND A TOTAL OF          5 INNER ITERATIONS.
    ------------------------------------------------

 NO OUTPUT CONTROL FOR STRESS PERIOD   95   TIME STEP    5

 WELLS WITH REDUCED PUMPING FOR STRESS PERIOD    95 TIME STEP     5
   LAY   ROW   COL         APPL.Q          ACT.Q        GW-HEAD       CELL-BOT
     1    77   213  -0.230952E+04  -0.671736E+03   0.152268E+03   0.148000E+03
     1    92    77  -0.230952E+04  -0.412856E+03  -0.865037E+02  -0.930000E+02
     1    94    77  -0.230952E+04  -0.353936E+03  -0.964059E+02  -0.102000E+03
     1    94    73  -0.230952E+04  -0.424095E+03  -0.684778E+02  -0.740000E+02


 SOLVING FOR HEAD 
                                                   Max.-Head-Change                        Max.-Flux-Residual
  Residual-Control   Outer-Iter.   Inner-Iter.     Column Row Layer    Max.-Head-Change    Column Row Layer    Max.-Flux-Residual            L2-New               L2-Old           Solver-Max-Delh
          0                 1           3           197   82     1      -0.1535313571E+00     197   82    1      -0.3702644557E+03      0.5999677595E+04      0.3005784125E+02     -0.1535313571E+00
          0                 2           2           197   82     1       0.1325783439E-01     197   82    1       0.3702062898E+02      0.5999393291E+03      0.5999677595E+04      0.1325783439E-01

    ------------------------------------------------
       NWT REQUIRED            2 OUTER ITERATIONS 
       AND A TOTAL OF          5 INNER ITERATIONS.
    ------------------------------------------------

 NO OUTPUT CONTROL FOR STRESS PERIOD   95   TIME STEP    6

 WELLS WITH REDUCED PUMPING FOR STRESS PERIOD    95 TIME STEP     6
   LAY   ROW   COL         APPL.Q          ACT.Q        GW-HEAD       CELL-BOT
     1    77   213  -0.230952E+04  -0.671887E+03   0.152269E+03   0.148000E+03
     1    92    77  -0.230952E+04  -0.412990E+03  -0.865026E+02  -0.930000E+02
     1    94    77  -0.230952E+04  -0.354060E+03  -0.964048E+02  -0.102000E+03
     1    94    73  -0.230952E+04  -0.424311E+03  -0.684763E+02  -0.740000E+02


 SOLVING FOR HEAD 
                                                   Max.-Head-Change                        Max.-Flux-Residual
  Residual-Control   Outer-Iter.   Inner-Iter.     Column Row Layer    Max.-Head-Change    Column Row Layer    Max.-Flux-Residual            L2-New               L2-Old           Solver-Max-Delh
          0                 1           3           197   82     1      -0.1524978150E+00     197   82    1      -0.3677456373E+03      0.5988534379E+04      0.2999675729E+02     -0.1524978150E+00
          0                 2           2           197   82     1       0.1316859383E-01     197   82    1       0.3676881567E+02      0.5988256811E+03      0.5988534379E+04      0.1316859383E-01

    ------------------------------------------------
       NWT REQUIRED            2 OUTER ITERATIONS 
       AND A TOTAL OF          5 INNER ITERATIONS.
    ------------------------------------------------

 NO OUTPUT CONTROL FOR STRESS PERIOD   95   TIME STEP    7

 WELLS WITH REDUCED PUMPING FOR STRESS PERIOD    95 TIME STEP     7
   LAY   ROW   COL         APPL.Q          ACT.Q        GW-HEAD       CELL-BOT
     1    77   213  -0.230952E+04  -0.672004E+03   0.152269E+03   0.148000E+03
     1    92    77  -0.230952E+04  -0.413116E+03  -0.865014E+02  -0.930000E+02
     1    94    77  -0.230952E+04  -0.354176E+03  -0.964038E+02  -0.102000E+03
     1    94    73  -0.230952E+04  -0.424514E+03  -0.684748E+02  -0.740000E+02


 SOLVING FOR HEAD 
                                                   Max.-Head-Change                        Max.-Flux-Residual
  Residual-Control   Outer-Iter.   Inner-Iter.     Column Row Layer    Max.-Head-Change    Column Row Layer    Max.-Flux-Residual            L2-New               L2-Old           Solver-Max-Delh
          0                 1           3           197   82     1      -0.1514809839E+00     197   82    1      -0.3652675954E+03      0.5978156720E+04      0.2994108017E+02     -0.1514809839E+00
          0                 2           2           197   82     1       0.1308079610E-01     197   82    1       0.3652107867E+02      0.5977886968E+03      0.5978156720E+04      0.1308079610E-01

    ------------------------------------------------
       NWT REQUIRED            2 OUTER ITERATIONS 
       AND A TOTAL OF          5 INNER ITERATIONS.
    ------------------------------------------------

 NO OUTPUT CONTROL FOR STRESS PERIOD   95   TIME STEP    8

 WELLS WITH REDUCED PUMPING FOR STRESS PERIOD    95 TIME STEP     8
   LAY   ROW   COL         APPL.Q          ACT.Q        GW-HEAD       CELL-BOT
     1    77   213  -0.230952E+04  -0.672089E+03   0.152269E+03   0.148000E+03
     1    92    77  -0.230952E+04  -0.413238E+03  -0.865004E+02  -0.930000E+02
     1    94    77  -0.230952E+04  -0.354285E+03  -0.964028E+02  -0.102000E+03
     1    94    73  -0.230952E+04  -0.424705E+03  -0.684734E+02  -0.740000E+02


 SOLVING FOR HEAD 
                                                   Max.-Head-Change                        Max.-Flux-Residual
  Residual-Control   Outer-Iter.   Inner-Iter.     Column Row Layer    Max.-Head-Change    Column Row Layer    Max.-Flux-Residual            L2-New               L2-Old           Solver-Max-Delh
          0                 1           3           197   82     1      -0.1504805693E+00     197   82    1      -0.3628296297E+03      0.5968375037E+04      0.2988923521E+02     -0.1504805693E+00
          0                 2           2           197   82     1       0.1299441574E-01     197   82    1       0.3627734795E+02      0.5968100759E+03      0.5968375037E+04      0.1299441574E-01

    ------------------------------------------------
       NWT REQUIRED            2 OUTER ITERATIONS 
       AND A TOTAL OF          5 INNER ITERATIONS.
    ------------------------------------------------

 NO OUTPUT CONTROL FOR STRESS PERIOD   95   TIME STEP    9

 WELLS WITH REDUCED PUMPING FOR STRESS PERIOD    95 TIME STEP     9
   LAY   ROW   COL         APPL.Q          ACT.Q        GW-HEAD       CELL-BOT
     1    77   213  -0.230952E+04  -0.672147E+03   0.152270E+03   0.148000E+03
     1    92    77  -0.230952E+04  -0.413354E+03  -0.864993E+02  -0.930000E+02
     1    94    77  -0.230952E+04  -0.354387E+03  -0.964019E+02  -0.102000E+03
     1    94    73  -0.230952E+04  -0.424883E+03  -0.684721E+02  -0.740000E+02


 SOLVING FOR HEAD 
                                                   Max.-Head-Change                        Max.-Flux-Residual
  Residual-Control   Outer-Iter.   Inner-Iter.     Column Row Layer    Max.-Head-Change    Column Row Layer    Max.-Flux-Residual            L2-New               L2-Old           Solver-Max-Delh
          0                 1           3           197   82     1      -0.1494962997E+00     197   82    1      -0.3604310822E+03      0.5959091589E+04      0.2984030790E+02     -0.1494962997E+00
          0                 2           2           197   82     1       0.1290942937E-01     197   82    1       0.3603755777E+02      0.5958829110E+03      0.5959091589E+04      0.1290942937E-01

    ------------------------------------------------
       NWT REQUIRED            2 OUTER ITERATIONS 
       AND A TOTAL OF          5 INNER ITERATIONS.
    ------------------------------------------------

 OUTPUT CONTROL FOR STRESS PERIOD   95   TIME STEP   10
    SAVE HEAD FOR ALL LAYERS

 WELLS WITH REDUCED PUMPING FOR STRESS PERIOD    95 TIME STEP    10
   LAY   ROW   COL         APPL.Q          ACT.Q        GW-HEAD       CELL-BOT
     1    77   213  -0.230952E+04  -0.672178E+03   0.152270E+03   0.148000E+03
     1    92    77  -0.230952E+04  -0.413468E+03  -0.864983E+02  -0.930000E+02
     1    94    77  -0.230952E+04  -0.354483E+03  -0.964011E+02  -0.102000E+03
     1    94    73  -0.230952E+04  -0.425050E+03  -0.684709E+02  -0.740000E+02


 HEAD WILL BE SAVED ON UNIT   51 AT END OF TIME STEP   10, STRESS PERIOD   95
1
  VOLUMETRIC BUDGET FOR ENTIRE MODEL AT END OF TIME STEP   10, STRESS PERIOD  95
  ------------------------------------------------------------------------------

     CUMULATIVE VOLUMES      L**3       RATES FOR THIS TIME STEP      L**3/T
     ------------------                 ------------------------

           IN:                                      IN:
           ---                                      ---
             STORAGE =   919590720.0000               STORAGE =      360566.7188
       CONSTANT HEAD =   148126784.0000         CONSTANT HEAD =       52189.7656
               WELLS =           0.0000                 WELLS =           0.0000
              DRAINS =           0.0000                DRAINS =           0.0000
                  ET =           0.0000                    ET =           0.0000
            RECHARGE =   494889088.0000              RECHARGE =      154009.4531

            TOTAL IN =  1562606592.0000              TOTAL IN =      566765.9375

          OUT:                                     OUT:
          ----                                     ----
             STORAGE =   242242752.0000               STORAGE =        7482.1543
       CONSTANT HEAD =           0.0000         CONSTANT HEAD =           0.0000
               WELLS =   907873088.0000                 WELLS =      479011.8438
              DRAINS =   291805824.0000                DRAINS =       55545.8086
                  ET =   117859112.0000                    ET =       22969.5137
            RECHARGE =      525047.1875              RECHARGE =           0.0000

           TOTAL OUT =  1560305792.0000             TOTAL OUT =      565009.3125

            IN - OUT =     2300800.0000              IN - OUT =        1756.6250

 PERCENT DISCREPANCY =           0.15     PERCENT DISCREPANCY =           0.31






         TIME SUMMARY AT END OF TIME STEP   10 IN STRESS PERIOD   95
                    SECONDS     MINUTES      HOURS       DAYS        YEARS
                    -----------------------------------------------------------
   TIME STEP LENGTH 2.62656E+05  4377.6      72.960      3.0400     8.32307E-03
 STRESS PERIOD TIME 2.62656E+06  43776.      729.60      30.400     8.32307E-02
         TOTAL TIME 2.49525E+08 4.15875E+06  69312.      2888.0      7.9070    
1
1
                            STRESS PERIOD NO.   96, LENGTH =   30.40000    
                            -----------------------------------------------

                              NUMBER OF TIME STEPS =    10

                               MULTIPLIER FOR DELT =     1.000

                            INITIAL TIME STEP SIZE =   3.040000    

 REUSING NON-PARAMETER WELLS FROM LAST STRESS PERIOD

    188 WELLS

 REUSING NON-PARAMETER DRAINS FROM LAST STRESS PERIOD

   1061 DRAINS

 REUSING SURF FROM LAST STRESS PERIOD

 REUSING EVTR FROM LAST STRESS PERIOD

 REUSING EXDP FROM LAST STRESS PERIOD



                           RECHARGE
 READING ON UNIT   19 WITH FORMAT: (510E15.6)          

 SOLVING FOR HEAD 
                                                   Max.-Head-Change                        Max.-Flux-Residual
  Residual-Control   Outer-Iter.   Inner-Iter.     Column Row Layer    Max.-Head-Change    Column Row Layer    Max.-Flux-Residual            L2-New               L2-Old           Solver-Max-Delh
          0                 1           3            53   88     1       0.2727050521E+00     464  446    1       0.6925100709E+03      0.7934846354E+04      0.2979395278E+02      0.2727050521E+00
          0                 2           2            53   88     1      -0.2360766978E-01     466  446    1      -0.6991700947E+02      0.7950299999E+03      0.7934846354E+04     -0.2360766978E-01

    ------------------------------------------------
       NWT REQUIRED            2 OUTER ITERATIONS 
       AND A TOTAL OF          5 INNER ITERATIONS.
    ------------------------------------------------

 NO OUTPUT CONTROL FOR STRESS PERIOD   96   TIME STEP    1

 WELLS WITH REDUCED PUMPING FOR STRESS PERIOD    96 TIME STEP     1
   LAY   ROW   COL         APPL.Q          ACT.Q        GW-HEAD       CELL-BOT
     1    77   213  -0.230952E+04  -0.669970E+03   0.152261E+03   0.148000E+03
     1    92    77  -0.230952E+04  -0.402519E+03  -0.865955E+02  -0.930000E+02
     1    94    77  -0.230952E+04  -0.353579E+03  -0.964090E+02  -0.102000E+03
     1    94    73  -0.230952E+04  -0.424028E+03  -0.684783E+02  -0.740000E+02


 SOLVING FOR HEAD 
                                                   Max.-Head-Change                        Max.-Flux-Residual
  Residual-Control   Outer-Iter.   Inner-Iter.     Column Row Layer    Max.-Head-Change    Column Row Layer    Max.-Flux-Residual            L2-New               L2-Old           Solver-Max-Delh
          0                 1           3            53   88     1       0.2706299644E+00     461  449    1       0.5389881480E+03      0.7027645884E+04      0.3976408644E+02      0.2706299644E+00
          0                 2           2            53   88     1      -0.2342759166E-01     461  449    1      -0.5435212857E+02      0.7031233760E+03      0.7027645884E+04     -0.2342759166E-01

    ------------------------------------------------
       NWT REQUIRED            2 OUTER ITERATIONS 
       AND A TOTAL OF          5 INNER ITERATIONS.
    ------------------------------------------------

 NO OUTPUT CONTROL FOR STRESS PERIOD   96   TIME STEP    2

 WELLS WITH REDUCED PUMPING FOR STRESS PERIOD    96 TIME STEP     2
   LAY   ROW   COL         APPL.Q          ACT.Q        GW-HEAD       CELL-BOT
     1    77   213  -0.230952E+04  -0.667918E+03   0.152254E+03   0.148000E+03
     1    92    77  -0.230952E+04  -0.396566E+03  -0.866487E+02  -0.930000E+02
     1    94    77  -0.230952E+04  -0.352711E+03  -0.964166E+02  -0.102000E+03
     1    94    73  -0.230952E+04  -0.423053E+03  -0.684855E+02  -0.740000E+02


 SOLVING FOR HEAD 
                                                   Max.-Head-Change                        Max.-Flux-Residual
  Residual-Control   Outer-Iter.   Inner-Iter.     Column Row Layer    Max.-Head-Change    Column Row Layer    Max.-Flux-Residual            L2-New               L2-Old           Solver-Max-Delh
          0                 1           3            53   88     1       0.2685663560E+00     461  449    1       0.4079829999E+03      0.6733215556E+04      0.3515891311E+02      0.2685663560E+00
          0                 2           2            53   88     1      -0.1631169017E+00      53   88    1      -0.9385367836E+02      0.6799253039E+03      0.6733215556E+04     -0.1631169017E+00
          0                 3           2            53   88     1      -0.8163325569E-02      53   88    1      -0.4696534215E+01      0.3399925240E+02      0.6799253039E+03     -0.8163325569E-02

    ------------------------------------------------
       NWT REQUIRED            3 OUTER ITERATIONS 
       AND A TOTAL OF          7 INNER ITERATIONS.
    ------------------------------------------------

 NO OUTPUT CONTROL FOR STRESS PERIOD   96   TIME STEP    3

 WELLS WITH REDUCED PUMPING FOR STRESS PERIOD    96 TIME STEP     3
   LAY   ROW   COL         APPL.Q          ACT.Q        GW-HEAD       CELL-BOT
     1    77   213  -0.230952E+04  -0.666016E+03   0.152246E+03   0.148000E+03
     1    92    77  -0.230952E+04  -0.393260E+03  -0.866784E+02  -0.930000E+02
     1    94    77  -0.230952E+04  -0.351880E+03  -0.964239E+02  -0.102000E+03
     1    94    73  -0.230952E+04  -0.422128E+03  -0.684923E+02  -0.740000E+02


 SOLVING FOR HEAD 
                                                   Max.-Head-Change                        Max.-Flux-Residual
  Residual-Control   Outer-Iter.   Inner-Iter.     Column Row Layer    Max.-Head-Change    Column Row Layer    Max.-Flux-Residual            L2-New               L2-Old           Solver-Max-Delh
          0                 1           3            52   88     1       0.2384926327E+00     197   82    1      -0.3753657999E+03      0.6584909388E+04      0.3399925240E+02      0.2384926327E+00
          0                 2           2            52   88     1      -0.2064075076E-01     197   82    1       0.3753040356E+02      0.6585834514E+03      0.6584909388E+04     -0.2064075076E-01

    ------------------------------------------------
       NWT REQUIRED            2 OUTER ITERATIONS 
       AND A TOTAL OF          5 INNER ITERATIONS.
    ------------------------------------------------

 NO OUTPUT CONTROL FOR STRESS PERIOD   96   TIME STEP    4

 WELLS WITH REDUCED PUMPING FOR STRESS PERIOD    96 TIME STEP     4
   LAY   ROW   COL         APPL.Q          ACT.Q        GW-HEAD       CELL-BOT
     1    77   213  -0.230952E+04  -0.664233E+03   0.152240E+03   0.148000E+03
     1    92    77  -0.230952E+04  -0.391331E+03  -0.866957E+02  -0.930000E+02
     1    94    77  -0.230952E+04  -0.351077E+03  -0.964310E+02  -0.102000E+03
     1    94    73  -0.230952E+04  -0.421240E+03  -0.684988E+02  -0.740000E+02


 SOLVING FOR HEAD 
                                                   Max.-Head-Change                        Max.-Flux-Residual
  Residual-Control   Outer-Iter.   Inner-Iter.     Column Row Layer    Max.-Head-Change    Column Row Layer    Max.-Flux-Residual            L2-New               L2-Old           Solver-Max-Delh
          0                 1           3            52   88     1       0.2353366642E+00     197   82    1      -0.3732634537E+03      0.6497148326E+04      0.3292938553E+02      0.2353366642E+00
          0                 2           2            52   88     1      -0.2036691190E-01     197   82    1       0.3732023323E+02      0.6497365674E+03      0.6497148326E+04     -0.2036691190E-01

    ------------------------------------------------
       NWT REQUIRED            2 OUTER ITERATIONS 
       AND A TOTAL OF          5 INNER ITERATIONS.
    ------------------------------------------------

 NO OUTPUT CONTROL FOR STRESS PERIOD   96   TIME STEP    5

 WELLS WITH REDUCED PUMPING FOR STRESS PERIOD    96 TIME STEP     5
   LAY   ROW   COL         APPL.Q          ACT.Q        GW-HEAD       CELL-BOT
     1    77   213  -0.230952E+04  -0.662565E+03   0.152233E+03   0.148000E+03
     1    92    77  -0.230952E+04  -0.390153E+03  -0.867063E+02  -0.930000E+02
     1    94    77  -0.230952E+04  -0.350306E+03  -0.964378E+02  -0.102000E+03
     1    94    73  -0.230952E+04  -0.420394E+03  -0.685050E+02  -0.740000E+02


 SOLVING FOR HEAD 
                                                   Max.-Head-Change                        Max.-Flux-Residual
  Residual-Control   Outer-Iter.   Inner-Iter.     Column Row Layer    Max.-Head-Change    Column Row Layer    Max.-Flux-Residual            L2-New               L2-Old           Solver-Max-Delh
          0                 1           3            52   88     1       0.2322048988E+00     197   82    1      -0.3711890586E+03      0.6440568776E+04      0.3248682922E+02      0.2322048988E+00
          0                 2           2            52   88     1      -0.1257211970E+00      52   88    1      -0.7234889951E+02      0.6484228498E+03      0.6440568776E+04     -0.1257211970E+00
          0                 3           2            52   88     1      -0.6290651471E-02      52   88    1      -0.3619803051E+01      0.3242132330E+02      0.6484228498E+03     -0.6290651471E-02

    ------------------------------------------------
       NWT REQUIRED            3 OUTER ITERATIONS 
       AND A TOTAL OF          7 INNER ITERATIONS.
    ------------------------------------------------

 NO OUTPUT CONTROL FOR STRESS PERIOD   96   TIME STEP    6

 WELLS WITH REDUCED PUMPING FOR STRESS PERIOD    96 TIME STEP     6
   LAY   ROW   COL         APPL.Q          ACT.Q        GW-HEAD       CELL-BOT
     1    77   213  -0.230952E+04  -0.661008E+03   0.152228E+03   0.148000E+03
     1    92    77  -0.230952E+04  -0.389381E+03  -0.867133E+02  -0.930000E+02
     1    94    77  -0.230952E+04  -0.349567E+03  -0.964443E+02  -0.102000E+03
     1    94    73  -0.230952E+04  -0.419589E+03  -0.685109E+02  -0.740000E+02


 SOLVING FOR HEAD 
                                                   Max.-Head-Change                        Max.-Flux-Residual
  Residual-Control   Outer-Iter.   Inner-Iter.     Column Row Layer    Max.-Head-Change    Column Row Layer    Max.-Flux-Residual            L2-New               L2-Old           Solver-Max-Delh
          0                 1           3            54   88     1       0.2144532657E+00     197   82    1      -0.3691527605E+03      0.6401597219E+04      0.3242132330E+02      0.2144532657E+00
          0                 2           2            54   88     1      -0.1855591588E-01     197   82    1       0.3690928781E+02      0.6401339620E+03      0.6401597219E+04     -0.1855591588E-01

    ------------------------------------------------
       NWT REQUIRED            2 OUTER ITERATIONS 
       AND A TOTAL OF          5 INNER ITERATIONS.
    ------------------------------------------------

 NO OUTPUT CONTROL FOR STRESS PERIOD   96   TIME STEP    7

 WELLS WITH REDUCED PUMPING FOR STRESS PERIOD    96 TIME STEP     7
   LAY   ROW   COL         APPL.Q          ACT.Q        GW-HEAD       CELL-BOT
     1    77   213  -0.230952E+04  -0.659539E+03   0.152222E+03   0.148000E+03
     1    92    77  -0.230952E+04  -0.388822E+03  -0.867183E+02  -0.930000E+02
     1    94    77  -0.230952E+04  -0.348852E+03  -0.964506E+02  -0.102000E+03
     1    94    73  -0.230952E+04  -0.418817E+03  -0.685166E+02  -0.740000E+02


 SOLVING FOR HEAD 
                                                   Max.-Head-Change                        Max.-Flux-Residual
  Residual-Control   Outer-Iter.   Inner-Iter.     Column Row Layer    Max.-Head-Change    Column Row Layer    Max.-Flux-Residual            L2-New               L2-Old           Solver-Max-Delh
          0                 1           3            48   86     1       0.2119780055E+00     197   82    1      -0.3671353798E+03      0.6373028039E+04      0.3200656669E+02      0.2119780055E+00
          0                 2           2            48   86     1      -0.1834024433E-01     197   82    1       0.3670760983E+02      0.6372802401E+03      0.6373028039E+04     -0.1834024433E-01

    ------------------------------------------------
       NWT REQUIRED            2 OUTER ITERATIONS 
       AND A TOTAL OF          5 INNER ITERATIONS.
    ------------------------------------------------

 NO OUTPUT CONTROL FOR STRESS PERIOD   96   TIME STEP    8

 WELLS WITH REDUCED PUMPING FOR STRESS PERIOD    96 TIME STEP     8
   LAY   ROW   COL         APPL.Q          ACT.Q        GW-HEAD       CELL-BOT
     1    77   213  -0.230952E+04  -0.658154E+03   0.152217E+03   0.148000E+03
     1    92    77  -0.230952E+04  -0.388383E+03  -0.867223E+02  -0.930000E+02
     1    94    77  -0.230952E+04  -0.348165E+03  -0.964567E+02  -0.102000E+03
     1    94    73  -0.230952E+04  -0.418080E+03  -0.685220E+02  -0.740000E+02


 SOLVING FOR HEAD 
                                                   Max.-Head-Change                        Max.-Flux-Residual
  Residual-Control   Outer-Iter.   Inner-Iter.     Column Row Layer    Max.-Head-Change    Column Row Layer    Max.-Flux-Residual            L2-New               L2-Old           Solver-Max-Delh
          0                 1           3            48   86     1       0.2099918269E+00     197   82    1      -0.3651468491E+03      0.6351278664E+04      0.3186385806E+02      0.2099918269E+00
          0                 2           2            48   86     1      -0.1816808287E-01     197   82    1       0.3650881560E+02      0.6351051365E+03      0.6351278664E+04     -0.1816808287E-01

    ------------------------------------------------
       NWT REQUIRED            2 OUTER ITERATIONS 
       AND A TOTAL OF          5 INNER ITERATIONS.
    ------------------------------------------------

 NO OUTPUT CONTROL FOR STRESS PERIOD   96   TIME STEP    9

 WELLS WITH REDUCED PUMPING FOR STRESS PERIOD    96 TIME STEP     9
   LAY   ROW   COL         APPL.Q          ACT.Q        GW-HEAD       CELL-BOT
     1    77   213  -0.230952E+04  -0.656847E+03   0.152212E+03   0.148000E+03
     1    92    77  -0.230952E+04  -0.388009E+03  -0.867257E+02  -0.930000E+02
     1    94    77  -0.230952E+04  -0.347503E+03  -0.964625E+02  -0.102000E+03
     1    94    73  -0.230952E+04  -0.417375E+03  -0.685272E+02  -0.740000E+02


 SOLVING FOR HEAD 
                                                   Max.-Head-Change                        Max.-Flux-Residual
  Residual-Control   Outer-Iter.   Inner-Iter.     Column Row Layer    Max.-Head-Change    Column Row Layer    Max.-Flux-Residual            L2-New               L2-Old           Solver-Max-Delh
          0                 1           3            48   86     1       0.2080243837E+00     197   82    1      -0.3631870541E+03      0.6334062822E+04      0.3175509038E+02      0.2080243837E+00
          0                 2           2            48   86     1      -0.1799755145E-01     197   82    1       0.3631289375E+02      0.6333825437E+03      0.6334062822E+04     -0.1799755145E-01

    ------------------------------------------------
       NWT REQUIRED            2 OUTER ITERATIONS 
       AND A TOTAL OF          5 INNER ITERATIONS.
    ------------------------------------------------

 OUTPUT CONTROL FOR STRESS PERIOD   96   TIME STEP   10
    SAVE HEAD FOR ALL LAYERS

 WELLS WITH REDUCED PUMPING FOR STRESS PERIOD    96 TIME STEP    10
   LAY   ROW   COL         APPL.Q          ACT.Q        GW-HEAD       CELL-BOT
     1    77   213  -0.230952E+04  -0.655610E+03   0.152207E+03   0.148000E+03
     1    92    77  -0.230952E+04  -0.387673E+03  -0.867287E+02  -0.930000E+02
     1    94    77  -0.230952E+04  -0.346866E+03  -0.964681E+02  -0.102000E+03
     1    94    73  -0.230952E+04  -0.416702E+03  -0.685322E+02  -0.740000E+02


 HEAD WILL BE SAVED ON UNIT   51 AT END OF TIME STEP   10, STRESS PERIOD   96
1
  VOLUMETRIC BUDGET FOR ENTIRE MODEL AT END OF TIME STEP   10, STRESS PERIOD  96
  ------------------------------------------------------------------------------

     CUMULATIVE VOLUMES      L**3       RATES FOR THIS TIME STEP      L**3/T
     ------------------                 ------------------------

           IN:                                      IN:
           ---                                      ---
             STORAGE =   931551936.0000               STORAGE =      388792.6875
       CONSTANT HEAD =   149713344.0000         CONSTANT HEAD =       52190.7070
               WELLS =           0.0000                 WELLS =           0.0000
              DRAINS =           0.0000                DRAINS =           0.0000
                  ET =           0.0000                    ET =           0.0000
            RECHARGE =   498930368.0000              RECHARGE =      132933.7500

            TOTAL IN =  1580195584.0000              TOTAL IN =      573917.1250

          OUT:                                     OUT:
          ----                                     ----
             STORAGE =   242846144.0000               STORAGE =       14994.2979
       CONSTANT HEAD =           0.0000         CONSTANT HEAD =           0.0000
               WELLS =   922433792.0000                 WELLS =      478953.5000
              DRAINS =   293476704.0000                DRAINS =       54501.7188
                  ET =   118567464.0000                    ET =       23607.7598
            RECHARGE =      525047.1875              RECHARGE =           0.0000

           TOTAL OUT =  1577849216.0000             TOTAL OUT =      572057.2500

            IN - OUT =     2346368.0000              IN - OUT =        1859.8750

 PERCENT DISCREPANCY =           0.15     PERCENT DISCREPANCY =           0.32






         TIME SUMMARY AT END OF TIME STEP   10 IN STRESS PERIOD   96
                    SECONDS     MINUTES      HOURS       DAYS        YEARS
                    -----------------------------------------------------------
   TIME STEP LENGTH 2.62656E+05  4377.6      72.960      3.0400     8.32307E-03
 STRESS PERIOD TIME 2.62656E+06  43776.      729.60      30.400     8.32307E-02
         TOTAL TIME 2.52152E+08 4.20253E+06  70042.      2918.4      7.9902    
1
1
                            STRESS PERIOD NO.   97, LENGTH =   30.40000    
                            -----------------------------------------------

                              NUMBER OF TIME STEPS =    10

                               MULTIPLIER FOR DELT =     1.000

                            INITIAL TIME STEP SIZE =   3.040000    

 REUSING NON-PARAMETER WELLS FROM LAST STRESS PERIOD

    188 WELLS

 REUSING NON-PARAMETER DRAINS FROM LAST STRESS PERIOD

   1061 DRAINS

 REUSING SURF FROM LAST STRESS PERIOD

 REUSING EVTR FROM LAST STRESS PERIOD

 REUSING EXDP FROM LAST STRESS PERIOD



                           RECHARGE
 READING ON UNIT   19 WITH FORMAT: (510E15.6)          

 SOLVING FOR HEAD 
                                                   Max.-Head-Change                        Max.-Flux-Residual
  Residual-Control   Outer-Iter.   Inner-Iter.     Column Row Layer    Max.-Head-Change    Column Row Layer    Max.-Flux-Residual            L2-New               L2-Old           Solver-Max-Delh
          0                 1           3           265   78     1      -0.1648571917E+00     461  450    1       0.4198162393E+03      0.6892661187E+04      0.3166895349E+02     -0.1648571917E+00
          0                 2           2           265   78     1       0.1419141514E-01     461  450    1      -0.4216349049E+02      0.6895233132E+03      0.6892661187E+04      0.1419141514E-01

    ------------------------------------------------
       NWT REQUIRED            2 OUTER ITERATIONS 
       AND A TOTAL OF          5 INNER ITERATIONS.
    ------------------------------------------------

 NO OUTPUT CONTROL FOR STRESS PERIOD   97   TIME STEP    1

 WELLS WITH REDUCED PUMPING FOR STRESS PERIOD    97 TIME STEP     1
   LAY   ROW   COL         APPL.Q          ACT.Q        GW-HEAD       CELL-BOT
     1    77   213  -0.230952E+04  -0.654574E+03   0.152203E+03   0.148000E+03
     1    92    77  -0.230952E+04  -0.388040E+03  -0.867254E+02  -0.930000E+02
     1    94    77  -0.230952E+04  -0.346313E+03  -0.964730E+02  -0.102000E+03
     1    94    73  -0.230952E+04  -0.416130E+03  -0.685364E+02  -0.740000E+02


 SOLVING FOR HEAD 
                                                   Max.-Head-Change                        Max.-Flux-Residual
  Residual-Control   Outer-Iter.   Inner-Iter.     Column Row Layer    Max.-Head-Change    Column Row Layer    Max.-Flux-Residual            L2-New               L2-Old           Solver-Max-Delh
          0                 1           3           265   78     1      -0.1594926537E+00     197   82    1      -0.3578705567E+03      0.6714458444E+04      0.3447805819E+02     -0.1594926537E+00
          0                 2           2           265   78     1       0.1373137599E-01     461  449    1      -0.3584817073E+02      0.6715003931E+03      0.6714458444E+04      0.1373137599E-01

    ------------------------------------------------
       NWT REQUIRED            2 OUTER ITERATIONS 
       AND A TOTAL OF          5 INNER ITERATIONS.
    ------------------------------------------------

 NO OUTPUT CONTROL FOR STRESS PERIOD   97   TIME STEP    2

 WELLS WITH REDUCED PUMPING FOR STRESS PERIOD    97 TIME STEP     2
   LAY   ROW   COL         APPL.Q          ACT.Q        GW-HEAD       CELL-BOT
     1    77   213  -0.230952E+04  -0.653584E+03   0.152199E+03   0.148000E+03
     1    92    77  -0.230952E+04  -0.388117E+03  -0.867247E+02  -0.930000E+02
     1    94    77  -0.230952E+04  -0.345781E+03  -0.964777E+02  -0.102000E+03
     1    94    73  -0.230952E+04  -0.415583E+03  -0.685404E+02  -0.740000E+02


 SOLVING FOR HEAD 
                                                   Max.-Head-Change                        Max.-Flux-Residual
  Residual-Control   Outer-Iter.   Inner-Iter.     Column Row Layer    Max.-Head-Change    Column Row Layer    Max.-Flux-Residual            L2-New               L2-Old           Solver-Max-Delh
          0                 1           3           263   79     1      -0.1562307355E+00     197   82    1      -0.3559979069E+03      0.6639155129E+04      0.3357543820E+02     -0.1562307355E+00
          0                 2           2           263   79     1       0.1344832594E-01     197   82    1       0.3559419162E+02      0.6639280413E+03      0.6639155129E+04      0.1344832594E-01

    ------------------------------------------------
       NWT REQUIRED            2 OUTER ITERATIONS 
       AND A TOTAL OF          5 INNER ITERATIONS.
    ------------------------------------------------

 NO OUTPUT CONTROL FOR STRESS PERIOD   97   TIME STEP    3

 WELLS WITH REDUCED PUMPING FOR STRESS PERIOD    97 TIME STEP     3
   LAY   ROW   COL         APPL.Q          ACT.Q        GW-HEAD       CELL-BOT
     1    77   213  -0.230952E+04  -0.652636E+03   0.152196E+03   0.148000E+03
     1    92    77  -0.230952E+04  -0.388041E+03  -0.867254E+02  -0.930000E+02
     1    94    77  -0.230952E+04  -0.345267E+03  -0.964823E+02  -0.102000E+03
     1    94    73  -0.230952E+04  -0.415059E+03  -0.685443E+02  -0.740000E+02


 SOLVING FOR HEAD 
                                                   Max.-Head-Change                        Max.-Flux-Residual
  Residual-Control   Outer-Iter.   Inner-Iter.     Column Row Layer    Max.-Head-Change    Column Row Layer    Max.-Flux-Residual            L2-New               L2-Old           Solver-Max-Delh
          0                 1           3           263   79     1      -0.1558458206E+00     197   82    1      -0.3541573507E+03      0.6590507063E+04      0.3319689093E+02     -0.1558458206E+00
          0                 2           2           263   79     1       0.1341501508E-01     197   82    1       0.3541018765E+02      0.6591039157E+03      0.6590507063E+04      0.1341501508E-01

    ------------------------------------------------
       NWT REQUIRED            2 OUTER ITERATIONS 
       AND A TOTAL OF          5 INNER ITERATIONS.
    ------------------------------------------------

 NO OUTPUT CONTROL FOR STRESS PERIOD   97   TIME STEP    4

 WELLS WITH REDUCED PUMPING FOR STRESS PERIOD    97 TIME STEP     4
   LAY   ROW   COL         APPL.Q          ACT.Q        GW-HEAD       CELL-BOT
     1    77   213  -0.230952E+04  -0.651726E+03   0.152192E+03   0.148000E+03
     1    92    77  -0.230952E+04  -0.387883E+03  -0.867268E+02  -0.930000E+02
     1    94    77  -0.230952E+04  -0.344772E+03  -0.964866E+02  -0.102000E+03
     1    94    73  -0.230952E+04  -0.414557E+03  -0.685480E+02  -0.740000E+02


 SOLVING FOR HEAD 
                                                   Max.-Head-Change                        Max.-Flux-Residual
  Residual-Control   Outer-Iter.   Inner-Iter.     Column Row Layer    Max.-Head-Change    Column Row Layer    Max.-Flux-Residual            L2-New               L2-Old           Solver-Max-Delh
          0                 1           3           263   79     1      -0.1552870437E+00     197   82    1      -0.3523473249E+03      0.6554610646E+04      0.3295517717E+02     -0.1552870437E+00
          0                 2           2            50   87     1      -0.3285481002E-01     197   82    1       0.3522923599E+02      0.6557328667E+03      0.6554610646E+04     -0.3285481002E-01

    ------------------------------------------------
       NWT REQUIRED            2 OUTER ITERATIONS 
       AND A TOTAL OF          5 INNER ITERATIONS.
    ------------------------------------------------

 NO OUTPUT CONTROL FOR STRESS PERIOD   97   TIME STEP    5

 WELLS WITH REDUCED PUMPING FOR STRESS PERIOD    97 TIME STEP     5
   LAY   ROW   COL         APPL.Q          ACT.Q        GW-HEAD       CELL-BOT
     1    77   213  -0.230952E+04  -0.650851E+03   0.152189E+03   0.148000E+03
     1    92    77  -0.230952E+04  -0.387684E+03  -0.867286E+02  -0.930000E+02
     1    94    77  -0.230952E+04  -0.344294E+03  -0.964909E+02  -0.102000E+03
     1    94    73  -0.230952E+04  -0.414076E+03  -0.685516E+02  -0.740000E+02


 SOLVING FOR HEAD 
                                                   Max.-Head-Change                        Max.-Flux-Residual
  Residual-Control   Outer-Iter.   Inner-Iter.     Column Row Layer    Max.-Head-Change    Column Row Layer    Max.-Flux-Residual            L2-New               L2-Old           Solver-Max-Delh
          0                 1           3           263   79     1      -0.1546904026E+00     197   82    1      -0.3505666558E+03      0.6526134136E+04      0.3279236845E+02     -0.1546904026E+00
          0                 2           2            48   86     1      -0.6511793977E-01      48   86    1      -0.3766456097E+02      0.6536838041E+03      0.6526134136E+04     -0.6511793977E-01

    ------------------------------------------------
       NWT REQUIRED            2 OUTER ITERATIONS 
       AND A TOTAL OF          5 INNER ITERATIONS.
    ------------------------------------------------

 NO OUTPUT CONTROL FOR STRESS PERIOD   97   TIME STEP    6

 WELLS WITH REDUCED PUMPING FOR STRESS PERIOD    97 TIME STEP     6
   LAY   ROW   COL         APPL.Q          ACT.Q        GW-HEAD       CELL-BOT
     1    77   213  -0.230952E+04  -0.650007E+03   0.152186E+03   0.148000E+03
     1    92    77  -0.230952E+04  -0.387464E+03  -0.867306E+02  -0.930000E+02
     1    94    77  -0.230952E+04  -0.343833E+03  -0.964950E+02  -0.102000E+03
     1    94    73  -0.230952E+04  -0.413615E+03  -0.685550E+02  -0.740000E+02


 SOLVING FOR HEAD 
                                                   Max.-Head-Change                        Max.-Flux-Residual
  Residual-Control   Outer-Iter.   Inner-Iter.     Column Row Layer    Max.-Head-Change    Column Row Layer    Max.-Flux-Residual            L2-New               L2-Old           Solver-Max-Delh
          0                 1           3           263   79     1      -0.1541098478E+00     197   82    1      -0.3488144235E+03      0.6502471271E+04      0.3268412159E+02     -0.1541098478E+00
          0                 2           2           263   79     1       0.1326543892E-01     197   82    1       0.3487604518E+02      0.6502298998E+03      0.6502471271E+04      0.1326543892E-01

    ------------------------------------------------
       NWT REQUIRED            2 OUTER ITERATIONS 
       AND A TOTAL OF          5 INNER ITERATIONS.
    ------------------------------------------------

 NO OUTPUT CONTROL FOR STRESS PERIOD   97   TIME STEP    7

 WELLS WITH REDUCED PUMPING FOR STRESS PERIOD    97 TIME STEP     7
   LAY   ROW   COL         APPL.Q          ACT.Q        GW-HEAD       CELL-BOT
     1    77   213  -0.230952E+04  -0.649192E+03   0.152183E+03   0.148000E+03
     1    92    77  -0.230952E+04  -0.387234E+03  -0.867327E+02  -0.930000E+02
     1    94    77  -0.230952E+04  -0.343388E+03  -0.964989E+02  -0.102000E+03
     1    94    73  -0.230952E+04  -0.413172E+03  -0.685583E+02  -0.740000E+02


 SOLVING FOR HEAD 
                                                   Max.-Head-Change                        Max.-Flux-Residual
  Residual-Control   Outer-Iter.   Inner-Iter.     Column Row Layer    Max.-Head-Change    Column Row Layer    Max.-Flux-Residual            L2-New               L2-Old           Solver-Max-Delh
          0                 1           3           263   79     1      -0.1535651676E+00     197   82    1      -0.3470899199E+03      0.6482193030E+04      0.3251071296E+02     -0.1535651676E+00
          0                 2           2           263   79     1       0.1321854068E-01     197   82    1       0.3470364320E+02      0.6481904632E+03      0.6482193030E+04      0.1321854068E-01

    ------------------------------------------------
       NWT REQUIRED            2 OUTER ITERATIONS 
       AND A TOTAL OF          5 INNER ITERATIONS.
    ------------------------------------------------

 NO OUTPUT CONTROL FOR STRESS PERIOD   97   TIME STEP    8

 WELLS WITH REDUCED PUMPING FOR STRESS PERIOD    97 TIME STEP     8
   LAY   ROW   COL         APPL.Q          ACT.Q        GW-HEAD       CELL-BOT
     1    77   213  -0.230952E+04  -0.648403E+03   0.152180E+03   0.148000E+03
     1    92    77  -0.230952E+04  -0.387001E+03  -0.867348E+02  -0.930000E+02
     1    94    77  -0.230952E+04  -0.342958E+03  -0.965027E+02  -0.102000E+03
     1    94    73  -0.230952E+04  -0.412747E+03  -0.685614E+02  -0.740000E+02


 SOLVING FOR HEAD 
                                                   Max.-Head-Change                        Max.-Flux-Residual
  Residual-Control   Outer-Iter.   Inner-Iter.     Column Row Layer    Max.-Head-Change    Column Row Layer    Max.-Flux-Residual            L2-New               L2-Old           Solver-Max-Delh
          0                 1           3           263   79     1      -0.1530622505E+00     197   82    1      -0.3453924898E+03      0.6464413092E+04      0.3240938980E+02     -0.1530622505E+00
          0                 2           2           263   79     1       0.1317524155E-01     197   82    1       0.3453394771E+02      0.6464226091E+03      0.6464413092E+04      0.1317524155E-01

    ------------------------------------------------
       NWT REQUIRED            2 OUTER ITERATIONS 
       AND A TOTAL OF          5 INNER ITERATIONS.
    ------------------------------------------------

 NO OUTPUT CONTROL FOR STRESS PERIOD   97   TIME STEP    9

 WELLS WITH REDUCED PUMPING FOR STRESS PERIOD    97 TIME STEP     9
   LAY   ROW   COL         APPL.Q          ACT.Q        GW-HEAD       CELL-BOT
     1    77   213  -0.230952E+04  -0.647637E+03   0.152177E+03   0.148000E+03
     1    92    77  -0.230952E+04  -0.386767E+03  -0.867369E+02  -0.930000E+02
     1    94    77  -0.230952E+04  -0.342543E+03  -0.965064E+02  -0.102000E+03
     1    94    73  -0.230952E+04  -0.412339E+03  -0.685644E+02  -0.740000E+02


 SOLVING FOR HEAD 
                                                   Max.-Head-Change                        Max.-Flux-Residual
  Residual-Control   Outer-Iter.   Inner-Iter.     Column Row Layer    Max.-Head-Change    Column Row Layer    Max.-Flux-Residual            L2-New               L2-Old           Solver-Max-Delh
          0                 1           3           263   79     1      -0.1526013078E+00     197   82    1      -0.3437216211E+03      0.6448551892E+04      0.3232098871E+02     -0.1526013078E+00
          0                 2           2           263   79     1       0.1313555740E-01     197   82    1       0.3436690752E+02      0.6448350666E+03      0.6448551892E+04      0.1313555740E-01

    ------------------------------------------------
       NWT REQUIRED            2 OUTER ITERATIONS 
       AND A TOTAL OF          5 INNER ITERATIONS.
    ------------------------------------------------

 OUTPUT CONTROL FOR STRESS PERIOD   97   TIME STEP   10
    SAVE HEAD FOR ALL LAYERS

 WELLS WITH REDUCED PUMPING FOR STRESS PERIOD    97 TIME STEP    10
   LAY   ROW   COL         APPL.Q          ACT.Q        GW-HEAD       CELL-BOT
     1    77   213  -0.230952E+04  -0.646893E+03   0.152174E+03   0.148000E+03
     1    92    77  -0.230952E+04  -0.386534E+03  -0.867390E+02  -0.930000E+02
     1    94    77  -0.230952E+04  -0.342141E+03  -0.965100E+02  -0.102000E+03
     1    94    73  -0.230952E+04  -0.411947E+03  -0.685673E+02  -0.740000E+02


 HEAD WILL BE SAVED ON UNIT   51 AT END OF TIME STEP   10, STRESS PERIOD   97
1
  VOLUMETRIC BUDGET FOR ENTIRE MODEL AT END OF TIME STEP   10, STRESS PERIOD  97
  ------------------------------------------------------------------------------

     CUMULATIVE VOLUMES      L**3       RATES FOR THIS TIME STEP      L**3/T
     ------------------                 ------------------------

           IN:                                      IN:
           ---                                      ---
             STORAGE =   943403072.0000               STORAGE =      386832.8125
       CONSTANT HEAD =   151299904.0000         CONSTANT HEAD =       52191.6133
               WELLS =           0.0000                 WELLS =           0.0000
              DRAINS =           0.0000                DRAINS =           0.0000
                  ET =           0.0000                    ET =           0.0000
            RECHARGE =   503173248.0000              RECHARGE =      139565.0938

            TOTAL IN =  1597876224.0000              TOTAL IN =      578589.5000

          OUT:                                     OUT:
          ----                                     ----
             STORAGE =   243567936.0000               STORAGE =       21430.2461
       CONSTANT HEAD =           0.0000         CONSTANT HEAD =           0.0000
               WELLS =   936993664.0000                 WELLS =      478934.1562
              DRAINS =   295114816.0000                DRAINS =       53422.6484
                  ET =   119272768.0000                    ET =       22983.9531
            RECHARGE =      525047.1875              RECHARGE =           0.0000

           TOTAL OUT =  1595474176.0000             TOTAL OUT =      576771.0000

            IN - OUT =     2402048.0000              IN - OUT =        1818.5000

 PERCENT DISCREPANCY =           0.15     PERCENT DISCREPANCY =           0.31






         TIME SUMMARY AT END OF TIME STEP   10 IN STRESS PERIOD   97
                    SECONDS     MINUTES      HOURS       DAYS        YEARS
                    -----------------------------------------------------------
   TIME STEP LENGTH 2.62656E+05  4377.6      72.960      3.0400     8.32307E-03
 STRESS PERIOD TIME 2.62656E+06  43776.      729.60      30.400     8.32307E-02
         TOTAL TIME 2.54778E+08 4.24630E+06  70772.      2948.8      8.0734    
1
1
                            STRESS PERIOD NO.   98, LENGTH =   30.40000    
                            -----------------------------------------------

                              NUMBER OF TIME STEPS =    10

                               MULTIPLIER FOR DELT =     1.000

                            INITIAL TIME STEP SIZE =   3.040000    

 REUSING NON-PARAMETER WELLS FROM LAST STRESS PERIOD

    188 WELLS

 REUSING NON-PARAMETER DRAINS FROM LAST STRESS PERIOD

   1061 DRAINS

 REUSING SURF FROM LAST STRESS PERIOD

 REUSING EVTR FROM LAST STRESS PERIOD

 REUSING EXDP FROM LAST STRESS PERIOD



                           RECHARGE
 READING ON UNIT   19 WITH FORMAT: (510E15.6)          

 SOLVING FOR HEAD 
                                                   Max.-Head-Change                        Max.-Flux-Residual
  Residual-Control   Outer-Iter.   Inner-Iter.     Column Row Layer    Max.-Head-Change    Column Row Layer    Max.-Flux-Residual            L2-New               L2-Old           Solver-Max-Delh
          0                 1           3           203   89     1      -0.2055044487E+00     464  446    1      -0.4814323495E+03      0.6556187519E+04      0.3224160548E+02     -0.2055044487E+00
          0                 2           2            50   87     1      -0.3419556218E-01     464  446    1       0.4800486540E+02      0.6551757316E+03      0.6556187519E+04     -0.3419556218E-01

    ------------------------------------------------
       NWT REQUIRED            2 OUTER ITERATIONS 
       AND A TOTAL OF          5 INNER ITERATIONS.
    ------------------------------------------------

 NO OUTPUT CONTROL FOR STRESS PERIOD   98   TIME STEP    1

 WELLS WITH REDUCED PUMPING FOR STRESS PERIOD    98 TIME STEP     1
   LAY   ROW   COL         APPL.Q          ACT.Q        GW-HEAD       CELL-BOT
     1    77   213  -0.230952E+04  -0.648185E+03   0.152179E+03   0.148000E+03
     1    92    77  -0.230952E+04  -0.396375E+03  -0.866504E+02  -0.930000E+02
     1    94    77  -0.230952E+04  -0.342653E+03  -0.965054E+02  -0.102000E+03
     1    94    73  -0.230952E+04  -0.412642E+03  -0.685622E+02  -0.740000E+02


 SOLVING FOR HEAD 
                                                   Max.-Head-Change                        Max.-Flux-Residual
  Residual-Control   Outer-Iter.   Inner-Iter.     Column Row Layer    Max.-Head-Change    Column Row Layer    Max.-Flux-Residual            L2-New               L2-Old           Solver-Max-Delh
          0                 1           3           203   89     1      -0.1919239638E+00     461  449    1      -0.3626056160E+03      0.5967115086E+04      0.3275848077E+02     -0.1919239638E+00
          0                 2           2           203   89     1       0.1653185198E-01     461  449    1       0.3605819316E+02      0.5965611332E+03      0.5967115086E+04      0.1653185198E-01

    ------------------------------------------------
       NWT REQUIRED            2 OUTER ITERATIONS 
       AND A TOTAL OF          5 INNER ITERATIONS.
    ------------------------------------------------

 NO OUTPUT CONTROL FOR STRESS PERIOD   98   TIME STEP    2

 WELLS WITH REDUCED PUMPING FOR STRESS PERIOD    98 TIME STEP     2
   LAY   ROW   COL         APPL.Q          ACT.Q        GW-HEAD       CELL-BOT
     1    77   213  -0.230952E+04  -0.649336E+03   0.152183E+03   0.148000E+03
     1    92    77  -0.230952E+04  -0.401742E+03  -0.866024E+02  -0.930000E+02
     1    94    77  -0.230952E+04  -0.343142E+03  -0.965011E+02  -0.102000E+03
     1    94    73  -0.230952E+04  -0.413300E+03  -0.685573E+02  -0.740000E+02


 SOLVING FOR HEAD 
                                                   Max.-Head-Change                        Max.-Flux-Residual
  Residual-Control   Outer-Iter.   Inner-Iter.     Column Row Layer    Max.-Head-Change    Column Row Layer    Max.-Flux-Residual            L2-New               L2-Old           Solver-Max-Delh
          0                 1           3           203   89     1      -0.1788891959E+00     197   82    1      -0.3167833936E+03      0.5790870105E+04      0.2982714253E+02     -0.1788891959E+00
          0                 2           2           203   89     1       0.1541155739E-01     197   82    1       0.3167393588E+02      0.5790233707E+03      0.5790870105E+04      0.1541155739E-01

    ------------------------------------------------
       NWT REQUIRED            2 OUTER ITERATIONS 
       AND A TOTAL OF          5 INNER ITERATIONS.
    ------------------------------------------------

 NO OUTPUT CONTROL FOR STRESS PERIOD   98   TIME STEP    3

 WELLS WITH REDUCED PUMPING FOR STRESS PERIOD    98 TIME STEP     3
   LAY   ROW   COL         APPL.Q          ACT.Q        GW-HEAD       CELL-BOT
     1    77   213  -0.230952E+04  -0.650359E+03   0.152187E+03   0.148000E+03
     1    92    77  -0.230952E+04  -0.404689E+03  -0.865762E+02  -0.930000E+02
     1    94    77  -0.230952E+04  -0.343608E+03  -0.964970E+02  -0.102000E+03
     1    94    73  -0.230952E+04  -0.413923E+03  -0.685527E+02  -0.740000E+02


 SOLVING FOR HEAD 
                                                   Max.-Head-Change                        Max.-Flux-Residual
  Residual-Control   Outer-Iter.   Inner-Iter.     Column Row Layer    Max.-Head-Change    Column Row Layer    Max.-Flux-Residual            L2-New               L2-Old           Solver-Max-Delh
          0                 1           3           203   89     1      -0.1665714471E+00     197   82    1      -0.3150858545E+03      0.5705708206E+04      0.2895071117E+02     -0.1665714471E+00
          0                 2           2           203   89     1       0.1435270645E-01     197   82    1       0.3150422273E+02      0.5705313588E+03      0.5705708206E+04      0.1435270645E-01

    ------------------------------------------------
       NWT REQUIRED            2 OUTER ITERATIONS 
       AND A TOTAL OF          5 INNER ITERATIONS.
    ------------------------------------------------

 NO OUTPUT CONTROL FOR STRESS PERIOD   98   TIME STEP    4

 WELLS WITH REDUCED PUMPING FOR STRESS PERIOD    98 TIME STEP     4
   LAY   ROW   COL         APPL.Q          ACT.Q        GW-HEAD       CELL-BOT
     1    77   213  -0.230952E+04  -0.651266E+03   0.152191E+03   0.148000E+03
     1    92    77  -0.230952E+04  -0.406336E+03  -0.865615E+02  -0.930000E+02
     1    94    77  -0.230952E+04  -0.344053E+03  -0.964930E+02  -0.102000E+03
     1    94    73  -0.230952E+04  -0.414513E+03  -0.685483E+02  -0.740000E+02


 SOLVING FOR HEAD 
                                                   Max.-Head-Change                        Max.-Flux-Residual
  Residual-Control   Outer-Iter.   Inner-Iter.     Column Row Layer    Max.-Head-Change    Column Row Layer    Max.-Flux-Residual            L2-New               L2-Old           Solver-Max-Delh
          0                 1           3           203   89     1      -0.1550682142E+00     197   82    1      -0.3134186715E+03      0.5657461025E+04      0.2852624365E+02     -0.1550682142E+00
          0                 2           2           203   89     1       0.1336366716E-01     197   82    1       0.3133754463E+02      0.5657166084E+03      0.5657461025E+04      0.1336366716E-01

    ------------------------------------------------
       NWT REQUIRED            2 OUTER ITERATIONS 
       AND A TOTAL OF          5 INNER ITERATIONS.
    ------------------------------------------------

 NO OUTPUT CONTROL FOR STRESS PERIOD   98   TIME STEP    5

 WELLS WITH REDUCED PUMPING FOR STRESS PERIOD    98 TIME STEP     5
   LAY   ROW   COL         APPL.Q          ACT.Q        GW-HEAD       CELL-BOT
     1    77   213  -0.230952E+04  -0.652068E+03   0.152194E+03   0.148000E+03
     1    92    77  -0.230952E+04  -0.407287E+03  -0.865531E+02  -0.930000E+02
     1    94    77  -0.230952E+04  -0.344477E+03  -0.964893E+02  -0.102000E+03
     1    94    73  -0.230952E+04  -0.415071E+03  -0.685442E+02  -0.740000E+02


 SOLVING FOR HEAD 
                                                   Max.-Head-Change                        Max.-Flux-Residual
  Residual-Control   Outer-Iter.   Inner-Iter.     Column Row Layer    Max.-Head-Change    Column Row Layer    Max.-Flux-Residual            L2-New               L2-Old           Solver-Max-Delh
          0                 1           3           203   89     1      -0.1444189780E+00     197   82    1      -0.3117806553E+03      0.5627306471E+04      0.2828561404E+02     -0.1444189780E+00
          0                 2           2           203   89     1       0.1244784693E-01     197   82    1       0.3117378263E+02      0.5627056104E+03      0.5627306471E+04      0.1244784693E-01

    ------------------------------------------------
       NWT REQUIRED            2 OUTER ITERATIONS 
       AND A TOTAL OF          5 INNER ITERATIONS.
    ------------------------------------------------

 NO OUTPUT CONTROL FOR STRESS PERIOD   98   TIME STEP    6

 WELLS WITH REDUCED PUMPING FOR STRESS PERIOD    98 TIME STEP     6
   LAY   ROW   COL         APPL.Q          ACT.Q        GW-HEAD       CELL-BOT
     1    77   213  -0.230952E+04  -0.652775E+03   0.152196E+03   0.148000E+03
     1    92    77  -0.230952E+04  -0.407866E+03  -0.865479E+02  -0.930000E+02
     1    94    77  -0.230952E+04  -0.344880E+03  -0.964857E+02  -0.102000E+03
     1    94    73  -0.230952E+04  -0.415599E+03  -0.685403E+02  -0.740000E+02


 SOLVING FOR HEAD 
                                                   Max.-Head-Change                        Max.-Flux-Residual
  Residual-Control   Outer-Iter.   Inner-Iter.     Column Row Layer    Max.-Head-Change    Column Row Layer    Max.-Flux-Residual            L2-New               L2-Old           Solver-Max-Delh
          0                 1           3           203   89     1      -0.1346268009E+00     213   83    1      -0.3102351684E+03      0.5607039099E+04      0.2813509255E+02     -0.1346268009E+00
          0                 2           2           203   89     1       0.1160553664E-01     213   83    1       0.3101916403E+02      0.5606805257E+03      0.5607039099E+04      0.1160553664E-01

    ------------------------------------------------
       NWT REQUIRED            2 OUTER ITERATIONS 
       AND A TOTAL OF          5 INNER ITERATIONS.
    ------------------------------------------------

 NO OUTPUT CONTROL FOR STRESS PERIOD   98   TIME STEP    7

 WELLS WITH REDUCED PUMPING FOR STRESS PERIOD    98 TIME STEP     7
   LAY   ROW   COL         APPL.Q          ACT.Q        GW-HEAD       CELL-BOT
     1    77   213  -0.230952E+04  -0.653395E+03   0.152199E+03   0.148000E+03
     1    92    77  -0.230952E+04  -0.408244E+03  -0.865446E+02  -0.930000E+02
     1    94    77  -0.230952E+04  -0.345265E+03  -0.964823E+02  -0.102000E+03
     1    94    73  -0.230952E+04  -0.416099E+03  -0.685366E+02  -0.740000E+02


 SOLVING FOR HEAD 
                                                   Max.-Head-Change                        Max.-Flux-Residual
  Residual-Control   Outer-Iter.   Inner-Iter.     Column Row Layer    Max.-Head-Change    Column Row Layer    Max.-Flux-Residual            L2-New               L2-Old           Solver-Max-Delh
          0                 1           3           213   83     1      -0.1283111893E+00     213   83    1      -0.3088201082E+03      0.5592590394E+04      0.2803385287E+02     -0.1283111893E+00
          0                 2           2           213   83     1       0.1108016487E-01     213   83    1       0.3087769634E+02      0.5592368373E+03      0.5592590394E+04      0.1108016487E-01

    ------------------------------------------------
       NWT REQUIRED            2 OUTER ITERATIONS 
       AND A TOTAL OF          5 INNER ITERATIONS.
    ------------------------------------------------

 NO OUTPUT CONTROL FOR STRESS PERIOD   98   TIME STEP    8

 WELLS WITH REDUCED PUMPING FOR STRESS PERIOD    98 TIME STEP     8
   LAY   ROW   COL         APPL.Q          ACT.Q        GW-HEAD       CELL-BOT
     1    77   213  -0.230952E+04  -0.653937E+03   0.152201E+03   0.148000E+03
     1    92    77  -0.230952E+04  -0.408514E+03  -0.865422E+02  -0.930000E+02
     1    94    77  -0.230952E+04  -0.345631E+03  -0.964790E+02  -0.102000E+03
     1    94    73  -0.230952E+04  -0.416572E+03  -0.685332E+02  -0.740000E+02


 SOLVING FOR HEAD 
                                                   Max.-Head-Change                        Max.-Flux-Residual
  Residual-Control   Outer-Iter.   Inner-Iter.     Column Row Layer    Max.-Head-Change    Column Row Layer    Max.-Flux-Residual            L2-New               L2-Old           Solver-Max-Delh
          0                 1           3           213   83     1      -0.1277383140E+00     213   83    1      -0.3074253100E+03      0.5581764996E+04      0.2796167668E+02     -0.1277383140E+00
          0                 2           2           204   74     1      -0.4655493126E-01     213   83    1       0.3073825401E+02      0.5587970857E+03      0.5581764996E+04     -0.4655493126E-01

    ------------------------------------------------
       NWT REQUIRED            2 OUTER ITERATIONS 
       AND A TOTAL OF          5 INNER ITERATIONS.
    ------------------------------------------------

 NO OUTPUT CONTROL FOR STRESS PERIOD   98   TIME STEP    9

 WELLS WITH REDUCED PUMPING FOR STRESS PERIOD    98 TIME STEP     9
   LAY   ROW   COL         APPL.Q          ACT.Q        GW-HEAD       CELL-BOT
     1    77   213  -0.230952E+04  -0.654408E+03   0.152203E+03   0.148000E+03
     1    92    77  -0.230952E+04  -0.408724E+03  -0.865403E+02  -0.930000E+02
     1    94    77  -0.230952E+04  -0.345980E+03  -0.964759E+02  -0.102000E+03
     1    94    73  -0.230952E+04  -0.417018E+03  -0.685299E+02  -0.740000E+02


 SOLVING FOR HEAD 
                                                   Max.-Head-Change                        Max.-Flux-Residual
  Residual-Control   Outer-Iter.   Inner-Iter.     Column Row Layer    Max.-Head-Change    Column Row Layer    Max.-Flux-Residual            L2-New               L2-Old           Solver-Max-Delh
          0                 1           3           213   83     1      -0.1271740410E+00     213   83    1      -0.3060510286E+03      0.5573282150E+04      0.2795155192E+02     -0.1271740410E+00
          0                 2           2           203   77     1      -0.7098166174E-01     203   77    1      -0.4093084713E+02      0.5588106443E+03      0.5573282150E+04     -0.7098166174E-01

    ------------------------------------------------
       NWT REQUIRED            2 OUTER ITERATIONS 
       AND A TOTAL OF          5 INNER ITERATIONS.
    ------------------------------------------------

 OUTPUT CONTROL FOR STRESS PERIOD   98   TIME STEP   10
    SAVE HEAD FOR ALL LAYERS

 WELLS WITH REDUCED PUMPING FOR STRESS PERIOD    98 TIME STEP    10
   LAY   ROW   COL         APPL.Q          ACT.Q        GW-HEAD       CELL-BOT
     1    77   213  -0.230952E+04  -0.654814E+03   0.152204E+03   0.148000E+03
     1    92    77  -0.230952E+04  -0.408902E+03  -0.865387E+02  -0.930000E+02
     1    94    77  -0.230952E+04  -0.346312E+03  -0.964730E+02  -0.102000E+03
     1    94    73  -0.230952E+04  -0.417441E+03  -0.685267E+02  -0.740000E+02


 HEAD WILL BE SAVED ON UNIT   51 AT END OF TIME STEP   10, STRESS PERIOD   98
1
  VOLUMETRIC BUDGET FOR ENTIRE MODEL AT END OF TIME STEP   10, STRESS PERIOD  98
  ------------------------------------------------------------------------------

     CUMULATIVE VOLUMES      L**3       RATES FOR THIS TIME STEP      L**3/T
     ------------------                 ------------------------

           IN:                                      IN:
           ---                                      ---
             STORAGE =   953714624.0000               STORAGE =      336754.1875
       CONSTANT HEAD =   152886544.0000         CONSTANT HEAD =       52192.4844
               WELLS =           0.0000                 WELLS =           0.0000
              DRAINS =           0.0000                DRAINS =           0.0000
                  ET =           0.0000                    ET =           0.0000
            RECHARGE =   508512448.0000              RECHARGE =      175635.9844

            TOTAL IN =  1615113728.0000              TOTAL IN =      564582.6875

          OUT:                                     OUT:
          ----                                     ----
             STORAGE =   243878336.0000               STORAGE =        7920.6724
       CONSTANT HEAD =           0.0000         CONSTANT HEAD =           0.0000
               WELLS =   951554176.0000                 WELLS =      478974.1250
              DRAINS =   296739008.0000                DRAINS =       53416.8516
                  ET =   119965320.0000                    ET =       22636.8848
            RECHARGE =      525047.1875              RECHARGE =           0.0000

           TOTAL OUT =  1612661888.0000             TOTAL OUT =      562948.5625

            IN - OUT =     2451840.0000              IN - OUT =        1634.1250

 PERCENT DISCREPANCY =           0.15     PERCENT DISCREPANCY =           0.29






         TIME SUMMARY AT END OF TIME STEP   10 IN STRESS PERIOD   98
                    SECONDS     MINUTES      HOURS       DAYS        YEARS
                    -----------------------------------------------------------
   TIME STEP LENGTH 2.62656E+05  4377.6      72.960      3.0400     8.32307E-03
 STRESS PERIOD TIME 2.62656E+06  43776.      729.60      30.400     8.32307E-02
         TOTAL TIME 2.57405E+08 4.29008E+06  71501.      2979.2      8.1567    
1
1
                            STRESS PERIOD NO.   99, LENGTH =   30.40000    
                            -----------------------------------------------

                              NUMBER OF TIME STEPS =    10

                               MULTIPLIER FOR DELT =     1.000

                            INITIAL TIME STEP SIZE =   3.040000    

 REUSING NON-PARAMETER WELLS FROM LAST STRESS PERIOD

    188 WELLS

 REUSING NON-PARAMETER DRAINS FROM LAST STRESS PERIOD

   1061 DRAINS

 REUSING SURF FROM LAST STRESS PERIOD

 REUSING EVTR FROM LAST STRESS PERIOD

 REUSING EXDP FROM LAST STRESS PERIOD



                           RECHARGE
 READING ON UNIT   19 WITH FORMAT: (510E15.6)          

 SOLVING FOR HEAD 
                                                   Max.-Head-Change                        Max.-Flux-Residual
  Residual-Control   Outer-Iter.   Inner-Iter.     Column Row Layer    Max.-Head-Change    Column Row Layer    Max.-Flux-Residual            L2-New               L2-Old           Solver-Max-Delh
          0                 1           3           213   83     1      -0.1266124593E+00     213   83    1      -0.3046972921E+03      0.5827464230E+04      0.2794043212E+02     -0.1266124593E+00
          0                 2           2           213   83     1       0.1093349012E-01     462  450    1       0.3722250602E+02      0.5827374079E+03      0.5827464230E+04      0.1093349012E-01

    ------------------------------------------------
       NWT REQUIRED            2 OUTER ITERATIONS 
       AND A TOTAL OF          5 INNER ITERATIONS.
    ------------------------------------------------

 NO OUTPUT CONTROL FOR STRESS PERIOD   99   TIME STEP    1

 WELLS WITH REDUCED PUMPING FOR STRESS PERIOD    99 TIME STEP     1
   LAY   ROW   COL         APPL.Q          ACT.Q        GW-HEAD       CELL-BOT
     1    77   213  -0.230952E+04  -0.655205E+03   0.152206E+03   0.148000E+03
     1    92    77  -0.230952E+04  -0.409277E+03  -0.865354E+02  -0.930000E+02
     1    94    77  -0.230952E+04  -0.346647E+03  -0.964701E+02  -0.102000E+03
     1    94    73  -0.230952E+04  -0.417863E+03  -0.685236E+02  -0.740000E+02


 SOLVING FOR HEAD 
                                                   Max.-Head-Change                        Max.-Flux-Residual
  Residual-Control   Outer-Iter.   Inner-Iter.     Column Row Layer    Max.-Head-Change    Column Row Layer    Max.-Flux-Residual            L2-New               L2-Old           Solver-Max-Delh
          0                 1           3           213   83     1      -0.1260607043E+00     213   83    1      -0.3033501227E+03      0.5737338924E+04      0.2913593255E+02     -0.1260607043E+00
          0                 2           2           213   83     1       0.1088584832E-01     213   83    1       0.3033084651E+02      0.5736865773E+03      0.5737338924E+04      0.1088584832E-01

    ------------------------------------------------
       NWT REQUIRED            2 OUTER ITERATIONS 
       AND A TOTAL OF          5 INNER ITERATIONS.
    ------------------------------------------------

 NO OUTPUT CONTROL FOR STRESS PERIOD   99   TIME STEP    2

 WELLS WITH REDUCED PUMPING FOR STRESS PERIOD    99 TIME STEP     2
   LAY   ROW   COL         APPL.Q          ACT.Q        GW-HEAD       CELL-BOT
     1    77   213  -0.230952E+04  -0.655540E+03   0.152207E+03   0.148000E+03
     1    92    77  -0.230952E+04  -0.409543E+03  -0.865331E+02  -0.930000E+02
     1    94    77  -0.230952E+04  -0.346966E+03  -0.964672E+02  -0.102000E+03
     1    94    73  -0.230952E+04  -0.418261E+03  -0.685207E+02  -0.740000E+02


 SOLVING FOR HEAD 
                                                   Max.-Head-Change                        Max.-Flux-Residual
  Residual-Control   Outer-Iter.   Inner-Iter.     Column Row Layer    Max.-Head-Change    Column Row Layer    Max.-Flux-Residual            L2-New               L2-Old           Solver-Max-Delh
          0                 1           3           213   83     1      -0.1255179113E+00     213   83    1      -0.3020264574E+03      0.5701248030E+04      0.2868397035E+02     -0.1255179113E+00
          0                 2           2           213   83     1       0.1083898066E-01     213   83    1       0.3019851441E+02      0.5700925171E+03      0.5701248030E+04      0.1083898066E-01

    ------------------------------------------------
       NWT REQUIRED            2 OUTER ITERATIONS 
       AND A TOTAL OF          5 INNER ITERATIONS.
    ------------------------------------------------

 NO OUTPUT CONTROL FOR STRESS PERIOD   99   TIME STEP    3

 WELLS WITH REDUCED PUMPING FOR STRESS PERIOD    99 TIME STEP     3
   LAY   ROW   COL         APPL.Q          ACT.Q        GW-HEAD       CELL-BOT
     1    77   213  -0.230952E+04  -0.655823E+03   0.152208E+03   0.148000E+03
     1    92    77  -0.230952E+04  -0.409749E+03  -0.865312E+02  -0.930000E+02
     1    94    77  -0.230952E+04  -0.347270E+03  -0.964646E+02  -0.102000E+03
     1    94    73  -0.230952E+04  -0.418638E+03  -0.685179E+02  -0.740000E+02


 SOLVING FOR HEAD 
                                                   Max.-Head-Change                        Max.-Flux-Residual
  Residual-Control   Outer-Iter.   Inner-Iter.     Column Row Layer    Max.-Head-Change    Column Row Layer    Max.-Flux-Residual            L2-New               L2-Old           Solver-Max-Delh
          0                 1           3           213   83     1      -0.1249837853E+00     213   83    1      -0.3007243042E+03      0.5679043396E+04      0.2850438179E+02     -0.1249837853E+00
          0                 2           2           213   83     1       0.1079286140E-01     213   83    1       0.3006833297E+02      0.5678770681E+03      0.5679043396E+04      0.1079286140E-01

    ------------------------------------------------
       NWT REQUIRED            2 OUTER ITERATIONS 
       AND A TOTAL OF          5 INNER ITERATIONS.
    ------------------------------------------------

 NO OUTPUT CONTROL FOR STRESS PERIOD   99   TIME STEP    4

 WELLS WITH REDUCED PUMPING FOR STRESS PERIOD    99 TIME STEP     4
   LAY   ROW   COL         APPL.Q          ACT.Q        GW-HEAD       CELL-BOT
     1    77   213  -0.230952E+04  -0.656060E+03   0.152209E+03   0.148000E+03
     1    92    77  -0.230952E+04  -0.409922E+03  -0.865297E+02  -0.930000E+02
     1    94    77  -0.230952E+04  -0.347558E+03  -0.964620E+02  -0.102000E+03
     1    94    73  -0.230952E+04  -0.418994E+03  -0.685153E+02  -0.740000E+02


 SOLVING FOR HEAD 
                                                   Max.-Head-Change                        Max.-Flux-Residual
  Residual-Control   Outer-Iter.   Inner-Iter.     Column Row Layer    Max.-Head-Change    Column Row Layer    Max.-Flux-Residual            L2-New               L2-Old           Solver-Max-Delh
          0                 1           3           213   83     1      -0.1244581862E+00     213   83    1      -0.2994430223E+03      0.5663286410E+04      0.2839365121E+02     -0.1244581862E+00
          0                 2           2           213   83     1       0.1074747838E-01     213   83    1       0.2994023804E+02      0.5663039939E+03      0.5663286410E+04      0.1074747838E-01

    ------------------------------------------------
       NWT REQUIRED            2 OUTER ITERATIONS 
       AND A TOTAL OF          5 INNER ITERATIONS.
    ------------------------------------------------

 NO OUTPUT CONTROL FOR STRESS PERIOD   99   TIME STEP    5

 WELLS WITH REDUCED PUMPING FOR STRESS PERIOD    99 TIME STEP     5
   LAY   ROW   COL         APPL.Q          ACT.Q        GW-HEAD       CELL-BOT
     1    77   213  -0.230952E+04  -0.656255E+03   0.152210E+03   0.148000E+03
     1    92    77  -0.230952E+04  -0.410075E+03  -0.865283E+02  -0.930000E+02
     1    94    77  -0.230952E+04  -0.347832E+03  -0.964596E+02  -0.102000E+03
     1    94    73  -0.230952E+04  -0.419329E+03  -0.685128E+02  -0.740000E+02


 SOLVING FOR HEAD 
                                                   Max.-Head-Change                        Max.-Flux-Residual
  Residual-Control   Outer-Iter.   Inner-Iter.     Column Row Layer    Max.-Head-Change    Column Row Layer    Max.-Flux-Residual            L2-New               L2-Old           Solver-Max-Delh
          0                 1           3           213   83     1      -0.1239409332E+00     213   83    1      -0.2981821007E+03      0.5651153324E+04      0.2831501696E+02     -0.1239409332E+00
          0                 2           2           213   83     1       0.1070281599E-01     213   83    1       0.2981417851E+02      0.5650976146E+03      0.5651153324E+04      0.1070281599E-01

    ------------------------------------------------
       NWT REQUIRED            2 OUTER ITERATIONS 
       AND A TOTAL OF          5 INNER ITERATIONS.
    ------------------------------------------------

 NO OUTPUT CONTROL FOR STRESS PERIOD   99   TIME STEP    6

 WELLS WITH REDUCED PUMPING FOR STRESS PERIOD    99 TIME STEP     6
   LAY   ROW   COL         APPL.Q          ACT.Q        GW-HEAD       CELL-BOT
     1    77   213  -0.230952E+04  -0.656412E+03   0.152210E+03   0.148000E+03
     1    92    77  -0.230952E+04  -0.410216E+03  -0.865271E+02  -0.930000E+02
     1    94    77  -0.230952E+04  -0.348093E+03  -0.964573E+02  -0.102000E+03
     1    94    73  -0.230952E+04  -0.419646E+03  -0.685105E+02  -0.740000E+02


 SOLVING FOR HEAD 
                                                   Max.-Head-Change                        Max.-Flux-Residual
  Residual-Control   Outer-Iter.   Inner-Iter.     Column Row Layer    Max.-Head-Change    Column Row Layer    Max.-Flux-Residual            L2-New               L2-Old           Solver-Max-Delh
          0                 1           3           213   83     1      -0.1234319038E+00     213   83    1      -0.2969412249E+03      0.5641288044E+04      0.2825470852E+02     -0.1234319038E+00
          0                 2           2           213   83     1       0.1065886365E-01     213   83    1       0.2969012294E+02      0.5641064575E+03      0.5641288044E+04      0.1065886365E-01

    ------------------------------------------------
       NWT REQUIRED            2 OUTER ITERATIONS 
       AND A TOTAL OF          5 INNER ITERATIONS.
    ------------------------------------------------

 NO OUTPUT CONTROL FOR STRESS PERIOD   99   TIME STEP    7

 WELLS WITH REDUCED PUMPING FOR STRESS PERIOD    99 TIME STEP     7
   LAY   ROW   COL         APPL.Q          ACT.Q        GW-HEAD       CELL-BOT
     1    77   213  -0.230952E+04  -0.656534E+03   0.152211E+03   0.148000E+03
     1    92    77  -0.230952E+04  -0.410350E+03  -0.865259E+02  -0.930000E+02
     1    94    77  -0.230952E+04  -0.348340E+03  -0.964551E+02  -0.102000E+03
     1    94    73  -0.230952E+04  -0.419944E+03  -0.685083E+02  -0.740000E+02


 SOLVING FOR HEAD 
                                                   Max.-Head-Change                        Max.-Flux-Residual
  Residual-Control   Outer-Iter.   Inner-Iter.     Column Row Layer    Max.-Head-Change    Column Row Layer    Max.-Flux-Residual            L2-New               L2-Old           Solver-Max-Delh
          0                 1           3           213   83     1      -0.1229309776E+00     213   83    1      -0.2957201008E+03      0.5632946885E+04      0.2820516933E+02     -0.1229309776E+00
          0                 2           2           213   83     1       0.1061561094E-01     213   83    1       0.2956804193E+02      0.5632730594E+03      0.5632946885E+04      0.1061561094E-01

    ------------------------------------------------
       NWT REQUIRED            2 OUTER ITERATIONS 
       AND A TOTAL OF          5 INNER ITERATIONS.
    ------------------------------------------------

 NO OUTPUT CONTROL FOR STRESS PERIOD   99   TIME STEP    8

 WELLS WITH REDUCED PUMPING FOR STRESS PERIOD    99 TIME STEP     8
   LAY   ROW   COL         APPL.Q          ACT.Q        GW-HEAD       CELL-BOT
     1    77   213  -0.230952E+04  -0.656624E+03   0.152211E+03   0.148000E+03
     1    92    77  -0.230952E+04  -0.410478E+03  -0.865248E+02  -0.930000E+02
     1    94    77  -0.230952E+04  -0.348574E+03  -0.964530E+02  -0.102000E+03
     1    94    73  -0.230952E+04  -0.420226E+03  -0.685062E+02  -0.740000E+02


 SOLVING FOR HEAD 
                                                   Max.-Head-Change                        Max.-Flux-Residual
  Residual-Control   Outer-Iter.   Inner-Iter.     Column Row Layer    Max.-Head-Change    Column Row Layer    Max.-Flux-Residual            L2-New               L2-Old           Solver-Max-Delh
          0                 1           3           213   83     1      -0.1224380115E+00     213   83    1      -0.2945183815E+03      0.5625686205E+04      0.2816349116E+02     -0.1224380115E+00
          0                 2           2           213   83     1       0.1057304553E-01     213   83    1       0.2944790083E+02      0.5625472353E+03      0.5625686205E+04      0.1057304553E-01

    ------------------------------------------------
       NWT REQUIRED            2 OUTER ITERATIONS 
       AND A TOTAL OF          5 INNER ITERATIONS.
    ------------------------------------------------

 NO OUTPUT CONTROL FOR STRESS PERIOD   99   TIME STEP    9

 WELLS WITH REDUCED PUMPING FOR STRESS PERIOD    99 TIME STEP     9
   LAY   ROW   COL         APPL.Q          ACT.Q        GW-HEAD       CELL-BOT
     1    77   213  -0.230952E+04  -0.656685E+03   0.152211E+03   0.148000E+03
     1    92    77  -0.230952E+04  -0.410601E+03  -0.865237E+02  -0.930000E+02
     1    94    77  -0.230952E+04  -0.348797E+03  -0.964511E+02  -0.102000E+03
     1    94    73  -0.230952E+04  -0.420491E+03  -0.685043E+02  -0.740000E+02


 SOLVING FOR HEAD 
                                                   Max.-Head-Change                        Max.-Flux-Residual
  Residual-Control   Outer-Iter.   Inner-Iter.     Column Row Layer    Max.-Head-Change    Column Row Layer    Max.-Flux-Residual            L2-New               L2-Old           Solver-Max-Delh
          0                 1           3           213   83     1      -0.1219528639E+00     213   83    1      -0.2933357245E+03      0.5619228259E+04      0.2812720280E+02     -0.1219528639E+00
          0                 2           2           213   83     1       0.1053115519E-01     213   83    1       0.2932966537E+02      0.5619017317E+03      0.5619228259E+04      0.1053115519E-01

    ------------------------------------------------
       NWT REQUIRED            2 OUTER ITERATIONS 
       AND A TOTAL OF          5 INNER ITERATIONS.
    ------------------------------------------------

 OUTPUT CONTROL FOR STRESS PERIOD   99   TIME STEP   10
    SAVE HEAD FOR ALL LAYERS

 WELLS WITH REDUCED PUMPING FOR STRESS PERIOD    99 TIME STEP    10
   LAY   ROW   COL         APPL.Q          ACT.Q        GW-HEAD       CELL-BOT
     1    77   213  -0.230952E+04  -0.656721E+03   0.152211E+03   0.148000E+03
     1    92    77  -0.230952E+04  -0.410721E+03  -0.865226E+02  -0.930000E+02
     1    94    77  -0.230952E+04  -0.349008E+03  -0.964492E+02  -0.102000E+03
     1    94    73  -0.230952E+04  -0.420741E+03  -0.685025E+02  -0.740000E+02


 HEAD WILL BE SAVED ON UNIT   51 AT END OF TIME STEP   10, STRESS PERIOD   99
1
  VOLUMETRIC BUDGET FOR ENTIRE MODEL AT END OF TIME STEP   10, STRESS PERIOD  99
  ------------------------------------------------------------------------------

     CUMULATIVE VOLUMES      L**3       RATES FOR THIS TIME STEP      L**3/T
     ------------------                 ------------------------

           IN:                                      IN:
           ---                                      ---
             STORAGE =   964120896.0000               STORAGE =      341968.0000
       CONSTANT HEAD =   154473264.0000         CONSTANT HEAD =       52193.3164
               WELLS =           0.0000                 WELLS =           0.0000
              DRAINS =           0.0000                DRAINS =           0.0000
                  ET =           0.0000                    ET =           0.0000
            RECHARGE =   513682688.0000              RECHARGE =      170069.0000

            TOTAL IN =  1632276864.0000              TOTAL IN =      564230.3125

          OUT:                                     OUT:
          ----                                     ----
             STORAGE =   244116864.0000               STORAGE =        7500.1758
       CONSTANT HEAD =           0.0000         CONSTANT HEAD =           0.0000
               WELLS =   966115264.0000                 WELLS =      478983.8438
              DRAINS =   298363232.0000                DRAINS =       53426.0703
                  ET =   120653976.0000                    ET =       22656.2656
            RECHARGE =      525047.1875              RECHARGE =           0.0000

           TOTAL OUT =  1629774336.0000             TOTAL OUT =      562566.3750

            IN - OUT =     2502528.0000              IN - OUT =        1663.9375

 PERCENT DISCREPANCY =           0.15     PERCENT DISCREPANCY =           0.30






         TIME SUMMARY AT END OF TIME STEP   10 IN STRESS PERIOD   99
                    SECONDS     MINUTES      HOURS       DAYS        YEARS
                    -----------------------------------------------------------
   TIME STEP LENGTH 2.62656E+05  4377.6      72.960      3.0400     8.32307E-03
 STRESS PERIOD TIME 2.62656E+06  43776.      729.60      30.400     8.32307E-02
         TOTAL TIME 2.60031E+08 4.33386E+06  72231.      3009.6      8.2399    
1
1
                            STRESS PERIOD NO.  100, LENGTH =   30.40000    
                            -----------------------------------------------

                              NUMBER OF TIME STEPS =    10

                               MULTIPLIER FOR DELT =     1.000

                            INITIAL TIME STEP SIZE =   3.040000    

 REUSING NON-PARAMETER WELLS FROM LAST STRESS PERIOD

    188 WELLS

 REUSING NON-PARAMETER DRAINS FROM LAST STRESS PERIOD

   1061 DRAINS

 REUSING SURF FROM LAST STRESS PERIOD

 REUSING EVTR FROM LAST STRESS PERIOD

 REUSING EXDP FROM LAST STRESS PERIOD



                           RECHARGE
 READING ON UNIT   19 WITH FORMAT: (510E15.6)          

 SOLVING FOR HEAD 
                                                   Max.-Head-Change                        Max.-Flux-Residual
  Residual-Control   Outer-Iter.   Inner-Iter.     Column Row Layer    Max.-Head-Change    Column Row Layer    Max.-Flux-Residual            L2-New               L2-Old           Solver-Max-Delh
          0                 1           3           263   79     1      -0.2478050819E+00     464  446    1       0.5916954707E+03      0.7385261962E+04      0.2809492970E+02     -0.2478050819E+00
          0                 2           2           203   77     1      -0.2305506926E-01     466  446    1      -0.5953608216E+02      0.7395376465E+03      0.7385261962E+04     -0.2305506926E-01

    ------------------------------------------------
       NWT REQUIRED            2 OUTER ITERATIONS 
       AND A TOTAL OF          5 INNER ITERATIONS.
    ------------------------------------------------

 NO OUTPUT CONTROL FOR STRESS PERIOD  100   TIME STEP    1

 WELLS WITH REDUCED PUMPING FOR STRESS PERIOD   100 TIME STEP     1
   LAY   ROW   COL         APPL.Q          ACT.Q        GW-HEAD       CELL-BOT
     1    77   213  -0.230952E+04  -0.654529E+03   0.152203E+03   0.148000E+03
     1    92    77  -0.230952E+04  -0.399793E+03  -0.866198E+02  -0.930000E+02
     1    94    77  -0.230952E+04  -0.348221E+03  -0.964562E+02  -0.102000E+03
     1    94    73  -0.230952E+04  -0.419801E+03  -0.685094E+02  -0.740000E+02


 SOLVING FOR HEAD 
                                                   Max.-Head-Change                        Max.-Flux-Residual
  Residual-Control   Outer-Iter.   Inner-Iter.     Column Row Layer    Max.-Head-Change    Column Row Layer    Max.-Flux-Residual            L2-New               L2-Old           Solver-Max-Delh
          0                 1           3           264   77     1      -0.2254626764E+00     461  449    1       0.4640775179E+03      0.6756696409E+04      0.3698577276E+02     -0.2254626764E+00
          0                 2           2           264   77     1       0.1940730411E-01     463  450    1      -0.5941495985E+02      0.6762589138E+03      0.6756696409E+04      0.1940730411E-01

    ------------------------------------------------
       NWT REQUIRED            2 OUTER ITERATIONS 
       AND A TOTAL OF          5 INNER ITERATIONS.
    ------------------------------------------------

 NO OUTPUT CONTROL FOR STRESS PERIOD  100   TIME STEP    2

 WELLS WITH REDUCED PUMPING FOR STRESS PERIOD   100 TIME STEP     2
   LAY   ROW   COL         APPL.Q          ACT.Q        GW-HEAD       CELL-BOT
     1    77   213  -0.230952E+04  -0.652491E+03   0.152195E+03   0.148000E+03
     1    92    77  -0.230952E+04  -0.393849E+03  -0.866731E+02  -0.930000E+02
     1    94    77  -0.230952E+04  -0.347463E+03  -0.964628E+02  -0.102000E+03
     1    94    73  -0.230952E+04  -0.418905E+03  -0.685160E+02  -0.740000E+02


 SOLVING FOR HEAD 
                                                   Max.-Head-Change                        Max.-Flux-Residual
  Residual-Control   Outer-Iter.   Inner-Iter.     Column Row Layer    Max.-Head-Change    Column Row Layer    Max.-Flux-Residual            L2-New               L2-Old           Solver-Max-Delh
          0                 1           3           264   77     1      -0.2149303168E+00     461  449    1       0.3584500617E+03      0.6563661503E+04      0.3381422059E+02     -0.2149303168E+00
          0                 2           2           264   77     1       0.1849808472E-01     461  449    1      -0.3602314097E+02      0.6564264711E+03      0.6563661503E+04      0.1849808472E-01

    ------------------------------------------------
       NWT REQUIRED            2 OUTER ITERATIONS 
       AND A TOTAL OF          5 INNER ITERATIONS.
    ------------------------------------------------

 NO OUTPUT CONTROL FOR STRESS PERIOD  100   TIME STEP    3

 WELLS WITH REDUCED PUMPING FOR STRESS PERIOD   100 TIME STEP     3
   LAY   ROW   COL         APPL.Q          ACT.Q        GW-HEAD       CELL-BOT
     1    77   213  -0.230952E+04  -0.650593E+03   0.152188E+03   0.148000E+03
     1    92    77  -0.230952E+04  -0.390532E+03  -0.867029E+02  -0.930000E+02
     1    94    77  -0.230952E+04  -0.346735E+03  -0.964693E+02  -0.102000E+03
     1    94    73  -0.230952E+04  -0.418049E+03  -0.685223E+02  -0.740000E+02


 SOLVING FOR HEAD 
                                                   Max.-Head-Change                        Max.-Flux-Residual
  Residual-Control   Outer-Iter.   Inner-Iter.     Column Row Layer    Max.-Head-Change    Column Row Layer    Max.-Flux-Residual            L2-New               L2-Old           Solver-Max-Delh
          0                 1           3           265   78     1      -0.2067193399E+00     197   82    1      -0.3100761032E+03      0.6469071080E+04      0.3282224156E+02     -0.2067193399E+00
          0                 2           2            52   88     1      -0.4907344965E-01     197   82    1       0.3100325717E+02      0.6476837322E+03      0.6469071080E+04     -0.4907344965E-01

    ------------------------------------------------
       NWT REQUIRED            2 OUTER ITERATIONS 
       AND A TOTAL OF          5 INNER ITERATIONS.
    ------------------------------------------------

 NO OUTPUT CONTROL FOR STRESS PERIOD  100   TIME STEP    4

 WELLS WITH REDUCED PUMPING FOR STRESS PERIOD   100 TIME STEP     4
   LAY   ROW   COL         APPL.Q          ACT.Q        GW-HEAD       CELL-BOT
     1    77   213  -0.230952E+04  -0.648820E+03   0.152181E+03   0.148000E+03
     1    92    77  -0.230952E+04  -0.388613E+03  -0.867202E+02  -0.930000E+02
     1    94    77  -0.230952E+04  -0.346034E+03  -0.964755E+02  -0.102000E+03
     1    94    73  -0.230952E+04  -0.417233E+03  -0.685283E+02  -0.740000E+02


 SOLVING FOR HEAD 
                                                   Max.-Head-Change                        Max.-Flux-Residual
  Residual-Control   Outer-Iter.   Inner-Iter.     Column Row Layer    Max.-Head-Change    Column Row Layer    Max.-Flux-Residual            L2-New               L2-Old           Solver-Max-Delh
          0                 1           3           265   78     1      -0.2037966219E+00     197   82    1      -0.3089912735E+03      0.6414315593E+04      0.3238558085E+02     -0.2037966219E+00
          0                 2           2            51   87     1      -0.1263961336E+00      51   87    1      -0.7293585413E+02      0.6455560742E+03      0.6414315593E+04     -0.1263961336E+00
          0                 3           2           457  452     1       0.8229523710E-02      51   87    1      -0.3649202911E+01      0.3227806115E+02      0.6455560742E+03      0.8229523710E-02

    ------------------------------------------------
       NWT REQUIRED            3 OUTER ITERATIONS 
       AND A TOTAL OF          7 INNER ITERATIONS.
    ------------------------------------------------

 NO OUTPUT CONTROL FOR STRESS PERIOD  100   TIME STEP    5

 WELLS WITH REDUCED PUMPING FOR STRESS PERIOD   100 TIME STEP     5
   LAY   ROW   COL         APPL.Q          ACT.Q        GW-HEAD       CELL-BOT
     1    77   213  -0.230952E+04  -0.647169E+03   0.152175E+03   0.148000E+03
     1    92    77  -0.230952E+04  -0.387448E+03  -0.867308E+02  -0.930000E+02
     1    94    77  -0.230952E+04  -0.345363E+03  -0.964814E+02  -0.102000E+03
     1    94    73  -0.230952E+04  -0.416457E+03  -0.685340E+02  -0.740000E+02


 SOLVING FOR HEAD 
                                                   Max.-Head-Change                        Max.-Flux-Residual
  Residual-Control   Outer-Iter.   Inner-Iter.     Column Row Layer    Max.-Head-Change    Column Row Layer    Max.-Flux-Residual            L2-New               L2-Old           Solver-Max-Delh
          0                 1           3           265   78     1      -0.2000080763E+00     197   82    1      -0.3079230025E+03      0.6379265300E+04      0.3227806115E+02     -0.2000080763E+00
          0                 2           2           265   78     1       0.1721265247E-01     197   82    1       0.3078800560E+02      0.6379017198E+03      0.6379265300E+04      0.1721265247E-01

    ------------------------------------------------
       NWT REQUIRED            2 OUTER ITERATIONS 
       AND A TOTAL OF          5 INNER ITERATIONS.
    ------------------------------------------------

 NO OUTPUT CONTROL FOR STRESS PERIOD  100   TIME STEP    6

 WELLS WITH REDUCED PUMPING FOR STRESS PERIOD   100 TIME STEP     6
   LAY   ROW   COL         APPL.Q          ACT.Q        GW-HEAD       CELL-BOT
     1    77   213  -0.230952E+04  -0.645613E+03   0.152169E+03   0.148000E+03
     1    92    77  -0.230952E+04  -0.386678E+03  -0.867377E+02  -0.930000E+02
     1    94    77  -0.230952E+04  -0.344714E+03  -0.964872E+02  -0.102000E+03
     1    94    73  -0.230952E+04  -0.415713E+03  -0.685395E+02  -0.740000E+02


 SOLVING FOR HEAD 
                                                   Max.-Head-Change                        Max.-Flux-Residual
  Residual-Control   Outer-Iter.   Inner-Iter.     Column Row Layer    Max.-Head-Change    Column Row Layer    Max.-Flux-Residual            L2-New               L2-Old           Solver-Max-Delh
          0                 1           3           265   78     1      -0.1955783743E+00     197   82    1      -0.3068616928E+03      0.6354864022E+04      0.3189499146E+02     -0.1955783743E+00
          0                 2           2           265   78     1       0.1682947161E-01     197   82    1       0.3068190316E+02      0.6354663270E+03      0.6354864022E+04      0.1682947161E-01

    ------------------------------------------------
       NWT REQUIRED            2 OUTER ITERATIONS 
       AND A TOTAL OF          5 INNER ITERATIONS.
    ------------------------------------------------

 NO OUTPUT CONTROL FOR STRESS PERIOD  100   TIME STEP    7

 WELLS WITH REDUCED PUMPING FOR STRESS PERIOD   100 TIME STEP     7
   LAY   ROW   COL         APPL.Q          ACT.Q        GW-HEAD       CELL-BOT
     1    77   213  -0.230952E+04  -0.644150E+03   0.152164E+03   0.148000E+03
     1    92    77  -0.230952E+04  -0.386126E+03  -0.867427E+02  -0.930000E+02
     1    94    77  -0.230952E+04  -0.344088E+03  -0.964927E+02  -0.102000E+03
     1    94    73  -0.230952E+04  -0.415001E+03  -0.685447E+02  -0.740000E+02


 SOLVING FOR HEAD 
                                                   Max.-Head-Change                        Max.-Flux-Residual
  Residual-Control   Outer-Iter.   Inner-Iter.     Column Row Layer    Max.-Head-Change    Column Row Layer    Max.-Flux-Residual            L2-New               L2-Old           Solver-Max-Delh
          0                 1           3           265   78     1      -0.1907319618E+00     197   82    1      -0.3058127926E+03      0.6336880573E+04      0.3177318956E+02     -0.1907319618E+00
          0                 2           2            48   86     1      -0.4420488858E-01     197   82    1       0.3057704121E+02      0.6341809394E+03      0.6336880573E+04     -0.4420488858E-01

    ------------------------------------------------
       NWT REQUIRED            2 OUTER ITERATIONS 
       AND A TOTAL OF          5 INNER ITERATIONS.
    ------------------------------------------------

 NO OUTPUT CONTROL FOR STRESS PERIOD  100   TIME STEP    8

 WELLS WITH REDUCED PUMPING FOR STRESS PERIOD   100 TIME STEP     8
   LAY   ROW   COL         APPL.Q          ACT.Q        GW-HEAD       CELL-BOT
     1    77   213  -0.230952E+04  -0.642772E+03   0.152158E+03   0.148000E+03
     1    92    77  -0.230952E+04  -0.385693E+03  -0.867466E+02  -0.930000E+02
     1    94    77  -0.230952E+04  -0.343486E+03  -0.964980E+02  -0.102000E+03
     1    94    73  -0.230952E+04  -0.414322E+03  -0.685498E+02  -0.740000E+02


 SOLVING FOR HEAD 
                                                   Max.-Head-Change                        Max.-Flux-Residual
  Residual-Control   Outer-Iter.   Inner-Iter.     Column Row Layer    Max.-Head-Change    Column Row Layer    Max.-Flux-Residual            L2-New               L2-Old           Solver-Max-Delh
          0                 1           3           265   78     1      -0.1856457799E+00     197   82    1      -0.3047766016E+03      0.6322925329E+04      0.3170891300E+02     -0.1856457799E+00
          0                 2           2            50   87     1      -0.6434388926E-01      50   87    1      -0.3751321309E+02      0.6333799955E+03      0.6322925329E+04     -0.6434388926E-01

    ------------------------------------------------
       NWT REQUIRED            2 OUTER ITERATIONS 
       AND A TOTAL OF          5 INNER ITERATIONS.
    ------------------------------------------------

 NO OUTPUT CONTROL FOR STRESS PERIOD  100   TIME STEP    9

 WELLS WITH REDUCED PUMPING FOR STRESS PERIOD   100 TIME STEP     9
   LAY   ROW   COL         APPL.Q          ACT.Q        GW-HEAD       CELL-BOT
     1    77   213  -0.230952E+04  -0.641470E+03   0.152153E+03   0.148000E+03
     1    92    77  -0.230952E+04  -0.385325E+03  -0.867500E+02  -0.930000E+02
     1    94    77  -0.230952E+04  -0.342906E+03  -0.965032E+02  -0.102000E+03
     1    94    73  -0.230952E+04  -0.413672E+03  -0.685546E+02  -0.740000E+02


 SOLVING FOR HEAD 
                                                   Max.-Head-Change                        Max.-Flux-Residual
  Residual-Control   Outer-Iter.   Inner-Iter.     Column Row Layer    Max.-Head-Change    Column Row Layer    Max.-Flux-Residual            L2-New               L2-Old           Solver-Max-Delh
          0                 1           3           265   78     1      -0.1804599962E+00     197   82    1      -0.3037533236E+03      0.6311617727E+04      0.3166887972E+02     -0.1804599962E+00
          0                 2           2           265   78     1       0.1552813391E-01     197   82    1       0.3037114889E+02      0.6311397978E+03      0.6311617727E+04      0.1552813391E-01

    ------------------------------------------------
       NWT REQUIRED            2 OUTER ITERATIONS 
       AND A TOTAL OF          5 INNER ITERATIONS.
    ------------------------------------------------

 OUTPUT CONTROL FOR STRESS PERIOD  100   TIME STEP   10
    SAVE HEAD FOR ALL LAYERS

 WELLS WITH REDUCED PUMPING FOR STRESS PERIOD   100 TIME STEP    10
   LAY   ROW   COL         APPL.Q          ACT.Q        GW-HEAD       CELL-BOT
     1    77   213  -0.230952E+04  -0.640237E+03   0.152149E+03   0.148000E+03
     1    92    77  -0.230952E+04  -0.384995E+03  -0.867530E+02  -0.930000E+02
     1    94    77  -0.230952E+04  -0.342347E+03  -0.965081E+02  -0.102000E+03
     1    94    73  -0.230952E+04  -0.413050E+03  -0.685592E+02  -0.740000E+02


 HEAD WILL BE SAVED ON UNIT   51 AT END OF TIME STEP   10, STRESS PERIOD  100
1
  VOLUMETRIC BUDGET FOR ENTIRE MODEL AT END OF TIME STEP   10, STRESS PERIOD 100
  ------------------------------------------------------------------------------

     CUMULATIVE VOLUMES      L**3       RATES FOR THIS TIME STEP      L**3/T
     ------------------                 ------------------------

           IN:                                      IN:
           ---                                      ---
             STORAGE =   975926336.0000               STORAGE =      385130.0938
       CONSTANT HEAD =   156059984.0000         CONSTANT HEAD =       52194.1172
               WELLS =           0.0000                 WELLS =           0.0000
              DRAINS =           0.0000                DRAINS =           0.0000
                  ET =           0.0000                    ET =           0.0000
            RECHARGE =   517795968.0000              RECHARGE =      135305.1250

            TOTAL IN =  1649782272.0000              TOTAL IN =      572629.3750

          OUT:                                     OUT:
          ----                                     ----
             STORAGE =   244711824.0000               STORAGE =       16428.7656
       CONSTANT HEAD =           0.0000         CONSTANT HEAD =           0.0000
               WELLS =   980675136.0000                 WELLS =      478927.2812
              DRAINS =   299971552.0000                DRAINS =       52519.5469
                  ET =   121345808.0000                    ET =       22919.2051
            RECHARGE =      525047.1875              RECHARGE =           0.0000

           TOTAL OUT =  1647229440.0000             TOTAL OUT =      570794.8125

            IN - OUT =     2552832.0000              IN - OUT =        1834.5625

 PERCENT DISCREPANCY =           0.15     PERCENT DISCREPANCY =           0.32






         TIME SUMMARY AT END OF TIME STEP   10 IN STRESS PERIOD  100
                    SECONDS     MINUTES      HOURS       DAYS        YEARS
                    -----------------------------------------------------------
   TIME STEP LENGTH 2.62656E+05  4377.6      72.960      3.0400     8.32307E-03
 STRESS PERIOD TIME 2.62656E+06  43776.      729.60      30.400     8.32307E-02
         TOTAL TIME 2.62658E+08 4.37763E+06  72961.      3040.0      8.3231    
1

 Run end date and time (yyyy/mm/dd hh:mm:ss): 2019/03/22 16:16:20
 Elapsed run time: 42.345 Seconds

